REMARK  Name = 
REMARK  3 active torsions:
REMARK  status: ('A' for Active; 'I' for Inactive)
REMARK    1  A    between atoms: C_1  and  C_2
REMARK    2  A    between atoms: C_2  and  N_3
REMARK    3  A    between atoms: N_3  and  O_4
REMARK                            x       y       z     vdW  Elec       q    Type
REMARK                         _______ _______ _______ _____ _____    ______ ____
ROOT
ATOM      1  N   UNL     1       0.899   0.872  -0.249  0.00  0.00    -0.204 NA
ATOM      2  H   UNL     1       1.216   0.918   0.723  0.00  0.00    +0.154 HD
ENDROOT
BRANCH   1   4
ATOM      3  C   UNL     1      -0.814  -0.697   0.661  0.00  0.00    +0.022 C 
ATOM      4  C   UNL     1      -0.507   0.459  -0.282  0.00  0.00    +0.107 C 
ENDBRANCH   1   4
BRANCH   1   5
ATOM      5  O   UNL     1       1.661  -0.254  -0.766  0.00  0.00    -0.315 OA
ATOM      6  H   UNL     1       2.162   0.163  -1.495  0.00  0.00    +0.236 HD
ENDBRANCH   1   5
TORSDOF 2
