REMARK  Name = 
REMARK  6 active torsions:
REMARK  status: ('A' for Active; 'I' for Inactive)
REMARK    1  A    between atoms: C_1  and  O_2
REMARK    2  A    between atoms: O_2  and  C_3
REMARK    3  A    between atoms: C_6  and  N_7
REMARK    4  A    between atoms: N_7  and  C_8
REMARK    5  A    between atoms: C_8  and  C_9
REMARK    6  A    between atoms: N_11  and  N_12
REMARK                            x       y       z     vdW  Elec       q    Type
REMARK                         _______ _______ _______ _____ _____    ______ ____
ROOT
ATOM      1  N   UNL     1       1.301  -0.113  -0.183  0.00  0.00    -0.335 N 
ATOM      2  H   UNL     1       1.650  -1.072  -0.143  0.00  0.00    +0.147 HD
ENDROOT
BRANCH   1   6
ATOM      3  C   UNL     1      -2.911  -0.151   0.259  0.00  0.00    +0.120 A 
ATOM      4  C   UNL     1      -2.114  -1.133   0.838  0.00  0.00    +0.047 A 
ATOM      5  C   UNL     1      -0.724  -1.102   0.661  0.00  0.00    +0.026 A 
ATOM      6  C   UNL     1      -0.100  -0.114  -0.115  0.00  0.00    +0.028 A 
ATOM      7  C   UNL     1      -0.911   0.888  -0.652  0.00  0.00    +0.026 A 
ATOM      8  C   UNL     1      -2.301   0.861  -0.480  0.00  0.00    +0.047 A 
BRANCH   3  10
ATOM      9  C   UNL     1      -4.938  -1.073   1.089  0.00  0.00    +0.277 C 
ATOM     10  O   UNL     1      -4.272  -0.058   0.347  0.00  0.00    -0.495 OA
ENDBRANCH   3  10
ENDBRANCH   1   6
BRANCH   1  11
ATOM     11  C   UNL     1       1.959   0.646  -1.264  0.00  0.00    +0.198 C 
BRANCH  11  12
ATOM     12  C   UNL     1       3.481   0.575  -1.111  0.00  0.00    +0.243 C 
ATOM     13  O   UNL     1       4.260   0.573  -2.063  0.00  0.00    -0.273 OA
ATOM     14  N   UNL     1       3.895   0.560   0.218  0.00  0.00    -0.252 N 
ATOM     15  H   UNL     1       3.174   0.400   0.926  0.00  0.00    +0.169 HD
BRANCH  14  16
ATOM     16  N   UNL     1       5.254   0.348   0.528  0.00  0.00    -0.254 NA
ATOM     17  H   UNL     1       5.705  -0.020  -0.321  0.00  0.00    +0.140 HD
ATOM     18  H   UNL     1       5.689   1.268   0.651  0.00  0.00    +0.140 HD
ENDBRANCH  14  16
ENDBRANCH  11  12
ENDBRANCH   1  11
TORSDOF 5
