
     RDKit          3D

 11 10  0  0  0  0  0  0  0  0999 V2000
   -0.8135   -0.6974    0.6607 C   0  0  0  0  0  0  0  0  0  0  0  0
   -0.5069    0.4589   -0.2817 C   0  0  0  0  0  0  0  0  0  0  0  0
    0.8993    0.8717   -0.2492 N   0  0  0  0  0  0  0  0  0  0  0  0
    1.6610   -0.2543   -0.7665 O   0  0  0  0  0  0  0  0  0  0  0  0
   -0.5479   -0.4465    1.6931 H   0  0  0  0  0  0  0  0  0  0  0  0
   -0.2711   -1.6049    0.3768 H   0  0  0  0  0  0  0  0  0  0  0  0
   -1.8838   -0.9267    0.6359 H   0  0  0  0  0  0  0  0  0  0  0  0
   -1.1184    1.3202    0.0089 H   0  0  0  0  0  0  0  0  0  0  0  0
   -0.7957    0.1982   -1.3062 H   0  0  0  0  0  0  0  0  0  0  0  0
    1.2157    0.9182    0.7232 H   0  0  0  0  0  0  0  0  0  0  0  0
    2.1615    0.1625   -1.4951 H   0  0  0  0  0  0  0  0  0  0  0  0
  1  2  1  0
  2  3  1  0
  3  4  1  0
  1  5  1  0
  1  6  1  0
  1  7  1  0
  2  8  1  0
  2  9  1  0
  3 10  1  0
  4 11  1  0
M  END
