
     RDKit          3D

 27 27  0  0  0  0  0  0  0  0999 V2000
   -4.9376   -1.0729    1.0885 C   0  0  0  0  0  0  0  0  0  0  0  0
   -4.2717   -0.0584    0.3472 O   0  0  0  0  0  0  0  0  0  0  0  0
   -2.9113   -0.1513    0.2587 C   0  0  0  0  0  0  0  0  0  0  0  0
   -2.1140   -1.1333    0.8375 C   0  0  0  0  0  0  0  0  0  0  0  0
   -0.7237   -1.1024    0.6614 C   0  0  0  0  0  0  0  0  0  0  0  0
   -0.0998   -0.1141   -0.1145 C   0  0  0  0  0  0  0  0  0  0  0  0
    1.3006   -0.1126   -0.1826 N   0  0  0  0  0  0  0  0  0  0  0  0
    1.9589    0.6460   -1.2642 C   0  0  0  0  0  0  0  0  0  0  0  0
    3.4811    0.5746   -1.1115 C   0  0  0  0  0  0  0  0  0  0  0  0
    4.2597    0.5729   -2.0630 O   0  0  0  0  0  0  0  0  0  0  0  0
    3.8947    0.5605    0.2176 N   0  0  0  0  0  0  0  0  0  0  0  0
    5.2544    0.3483    0.5283 N   0  0  0  0  0  0  0  0  0  0  0  0
   -0.9106    0.8883   -0.6519 C   0  0  0  0  0  0  0  0  0  0  0  0
   -2.3007    0.8607   -0.4802 C   0  0  0  0  0  0  0  0  0  0  0  0
   -6.0108   -0.8613    1.0552 H   0  0  0  0  0  0  0  0  0  0  0  0
   -4.6284   -1.0612    2.1388 H   0  0  0  0  0  0  0  0  0  0  0  0
   -4.7786   -2.0590    0.6398 H   0  0  0  0  0  0  0  0  0  0  0  0
   -2.5333   -1.9320    1.4394 H   0  0  0  0  0  0  0  0  0  0  0  0
   -0.1255   -1.8705    1.1466 H   0  0  0  0  0  0  0  0  0  0  0  0
    1.6501   -1.0717   -0.1427 H   0  0  0  0  0  0  0  0  0  0  0  0
    1.6888    0.2213   -2.2369 H   0  0  0  0  0  0  0  0  0  0  0  0
    1.6943    1.7079   -1.2301 H   0  0  0  0  0  0  0  0  0  0  0  0
    3.1738    0.4001    0.9262 H   0  0  0  0  0  0  0  0  0  0  0  0
    5.7052   -0.0196   -0.3208 H   0  0  0  0  0  0  0  0  0  0  0  0
    5.6888    1.2676    0.6508 H   0  0  0  0  0  0  0  0  0  0  0  0
   -0.4939    1.7159   -1.2161 H   0  0  0  0  0  0  0  0  0  0  0  0
   -2.9105    1.6455   -0.9216 H   0  0  0  0  0  0  0  0  0  0  0  0
  1  2  1  0
  2  3  1  0
  3  4  2  0
  4  5  1  0
  5  6  2  0
  6  7  1  0
  7  8  1  0
  8  9  1  0
  9 10  2  0
  9 11  1  0
 11 12  1  0
  6 13  1  0
 13 14  2  0
 14  3  1  0
  1 15  1  0
  1 16  1  0
  1 17  1  0
  4 18  1  0
  5 19  1  0
  7 20  1  0
  8 21  1  0
  8 22  1  0
 11 23  1  0
 12 24  1  0
 12 25  1  0
 13 26  1  0
 14 27  1  0
M  END
