REMARK  Name = 
REMARK  4 active torsions:
REMARK  status: ('A' for Active; 'I' for Inactive)
REMARK    1  A    between atoms: C_1  and  O_2
REMARK    2  A    between atoms: O_2  and  C_3
REMARK    3  A    between atoms: C_10  and  C_11
REMARK    4  A    between atoms: C_11  and  O_13
REMARK                            x       y       z     vdW  Elec       q    Type
REMARK                         _______ _______ _______ _____ _____    ______ ____
ROOT
ATOM      1  C   UNL     1       3.127  -0.036   2.099  0.00  0.00    +0.137 A 
ATOM      2  C   UNL     1       2.671  -1.319   2.424  0.00  0.00    +0.086 A 
ATOM      3  C   UNL     1       3.488  -2.193   3.140  0.00  0.00    +0.141 A 
ATOM      4  F   UNL     1       3.009  -3.409   3.440  0.00  0.00    -0.204 F 
ATOM      5  C   UNL     1       4.764  -1.814   3.537  0.00  0.00    +0.054 A 
ATOM      6 BR   UNL     1       5.859  -2.995   4.525  0.00  0.00    -0.047 Br
ATOM      7  C   UNL     1       5.238  -0.545   3.210  0.00  0.00    +0.036 A 
ATOM      8  C   UNL     1       4.425   0.353   2.493  0.00  0.00    +0.102 A 
ENDROOT
BRANCH   1  10
ATOM      9  C   UNL     1       1.089   0.488   0.951  0.00  0.00    +0.277 C 
ATOM     10  O   UNL     1       2.377   0.890   1.417  0.00  0.00    -0.494 OA
ENDBRANCH   1  10
BRANCH   8  11
ATOM     11  C   UNL     1       5.031   1.686   2.192  0.00  0.00    +0.340 C 
ATOM     12  O   UNL     1       6.230   1.890   2.295  0.00  0.00    -0.245 OA
BRANCH  11  13
ATOM     13  O   UNL     1       4.162   2.660   1.854  0.00  0.00    -0.477 OA
ATOM     14  H   UNL     1       3.244   2.337   1.746  0.00  0.00    +0.295 HD
ENDBRANCH  11  13
ENDBRANCH   8  11
TORSDOF 3
