REMARK  Name = 
REMARK  6 active torsions:
REMARK  status: ('A' for Active; 'I' for Inactive)
REMARK    1  A    between atoms: C_1  and  O_2
REMARK    2  A    between atoms: O_2  and  C_3
REMARK    3  A    between atoms: C_5  and  C_6
REMARK    4  A    between atoms: C_10  and  O_11
REMARK    5  A    between atoms: O_11  and  C_12
REMARK    6  A    between atoms: C_12  and  C_14
REMARK                            x       y       z     vdW  Elec       q    Type
REMARK                         _______ _______ _______ _____ _____    ______ ____
ROOT
ATOM      1  C   UNL     1       2.768   1.223   1.846  0.00  0.00    +0.163 A 
ATOM      2  C   UNL     1       2.723   1.102   3.242  0.00  0.00    +0.060 A 
ATOM      3  C   UNL     1       3.487   1.958   4.041  0.00  0.00    +0.018 A 
ATOM      4  C   UNL     1       4.315   2.922   3.468  0.00  0.00    +0.015 A 
ATOM      5  C   UNL     1       4.383   3.036   2.082  0.00  0.00    +0.051 A 
ATOM      6  C   UNL     1       3.609   2.195   1.273  0.00  0.00    +0.173 A 
ENDROOT
BRANCH   1   8
ATOM      7  C   UNL     1       0.811  -0.059   1.515  0.00  0.00    +0.277 C 
ATOM      8  O   UNL     1       2.062   0.401   1.002  0.00  0.00    -0.491 OA
ENDBRANCH   1   8
BRANCH   3   9
ATOM      9  C   UNL     1       3.404   1.839   5.509  0.00  0.00    +0.258 C 
ATOM     10  O   UNL     1       4.288   2.255   6.246  0.00  0.00    -0.296 OA
ENDBRANCH   3   9
BRANCH   6  11
ATOM     11  O   UNL     1       3.752   2.229  -0.138  0.00  0.00    -0.419 OA
BRANCH  11  12
ATOM     12  C   UNL     1       3.981   3.424  -0.817  0.00  0.00    +0.346 C 
ATOM     13  O   UNL     1       3.834   4.555  -0.372  0.00  0.00    -0.244 OA
BRANCH  12  14
ATOM     14  C   UNL     1       4.484   3.108  -2.179  0.00  0.00    +0.078 A 
ATOM     15  C   UNL     1       3.964   1.983  -2.844  0.00  0.00    +0.016 A 
ATOM     16  C   UNL     1       4.441   1.617  -4.105  0.00  0.00    +0.001 A 
ATOM     17  C   UNL     1       5.429   2.376  -4.724  0.00  0.00    +0.001 A 
ATOM     18  C   UNL     1       5.937   3.509  -4.087  0.00  0.00    +0.021 A 
ATOM     19  C   UNL     1       5.468   3.879  -2.815  0.00  0.00    +0.055 A 
ATOM     20 CL   UNL     1       6.213   5.263  -2.098  0.00  0.00    -0.083 Cl
ENDBRANCH  12  14
ENDBRANCH  11  12
ENDBRANCH   6  11
TORSDOF 5
