
     RDKit          3D

 20 19  0  0  0  0  0  0  0  0999 V2000
   -1.4150   -1.1489    0.9601 C   0  0  0  0  0  0  0  0  0  0  0  0
   -0.7419   -1.1134   -0.4070 C   0  0  0  0  0  0  0  0  0  0  0  0
    0.0266    0.1819   -0.7340 C   0  0  0  0  0  0  0  0  0  0  0  0
    1.0085    0.6476    0.3522 C   0  0  0  0  0  0  0  0  0  0  0  0
    2.1047   -0.3662    0.6473 C   0  0  0  0  0  0  0  0  0  0  0  0
   -0.9246    1.3103   -1.0890 C   0  0  0  0  0  0  0  0  0  0  0  0
   -2.1234    1.3689   -0.8769 O   0  0  0  0  0  0  0  0  0  0  0  0
   -0.3029    2.3238   -1.7260 O   0  0  0  0  0  0  0  0  0  0  0  0
   -0.6814   -1.1280    1.7711 H   0  0  0  0  0  0  0  0  0  0  0  0
   -1.9911   -2.0742    1.0654 H   0  0  0  0  0  0  0  0  0  0  0  0
   -2.1033   -0.3108    1.0974 H   0  0  0  0  0  0  0  0  0  0  0  0
   -1.5078   -1.2831   -1.1745 H   0  0  0  0  0  0  0  0  0  0  0  0
   -0.0535   -1.9648   -0.4729 H   0  0  0  0  0  0  0  0  0  0  0  0
    0.5914   -0.0247   -1.6544 H   0  0  0  0  0  0  0  0  0  0  0  0
    1.4897    1.5810    0.0335 H   0  0  0  0  0  0  0  0  0  0  0  0
    0.4728    0.8928    1.2769 H   0  0  0  0  0  0  0  0  0  0  0  0
    2.6586   -0.6192   -0.2623 H   0  0  0  0  0  0  0  0  0  0  0  0
    1.6998   -1.2886    1.0727 H   0  0  0  0  0  0  0  0  0  0  0  0
    2.8144    0.0487    1.3703 H   0  0  0  0  0  0  0  0  0  0  0  0
   -1.0216    2.9671   -1.9007 H   0  0  0  0  0  0  0  0  0  0  0  0
  1  2  1  0
  2  3  1  0
  3  4  1  0
  4  5  1  0
  3  6  1  0
  6  7  2  0
  6  8  1  0
  1  9  1  0
  1 10  1  0
  1 11  1  0
  2 12  1  0
  2 13  1  0
  3 14  1  0
  4 15  1  0
  4 16  1  0
  5 17  1  0
  5 18  1  0
  5 19  1  0
  8 20  1  0
M  END
