REMARK  Name = 
REMARK  3 active torsions:
REMARK  status: ('A' for Active; 'I' for Inactive)
REMARK    1  A    between atoms: O_1  and  C_2
REMARK    2  A    between atoms: C_2  and  C_3
REMARK    3  A    between atoms: C_8  and  O_9
REMARK                            x       y       z     vdW  Elec       q    Type
REMARK                         _______ _______ _______ _____ _____    ______ ____
ROOT
ATOM      1  C   UNL     1       2.998  -1.298  -0.288  0.00  0.00    +0.019 A 
ATOM      2  C   UNL     1       2.232  -2.375   0.185  0.00  0.00    +0.009 A 
ATOM      3  C   UNL     1       2.603  -3.693  -0.091  0.00  0.00    +0.001 A 
ATOM      4  C   UNL     1       3.741  -3.953  -0.852  0.00  0.00    +0.004 A 
ATOM      5  C   UNL     1       4.507  -2.897  -1.342  0.00  0.00    +0.046 A 
ATOM      6  C   UNL     1       4.129  -1.582  -1.062  0.00  0.00    +0.122 A 
ENDROOT
BRANCH   6   7
ATOM      7  O   UNL     1       4.868  -0.541  -1.553  0.00  0.00    -0.506 OA
ATOM      8  H   UNL     1       5.622  -0.904  -2.046  0.00  0.00    +0.292 HD
ENDBRANCH   6   7
BRANCH   1   9
ATOM      9  C   UNL     1       2.604   0.132  -0.023  0.00  0.00    +0.194 C 
BRANCH   9  10
ATOM     10  O   UNL     1       1.643   0.238   1.025  0.00  0.00    -0.390 OA
ATOM     11  H   UNL     1       1.504   1.188   1.168  0.00  0.00    +0.210 HD
ENDBRANCH   9  10
ENDBRANCH   1   9
TORSDOF 3
