
     RDKit          3D

 26 26  0  0  0  0  0  0  0  0999 V2000
   -3.9062    0.6598    1.3350 C   0  0  0  0  0  0  0  0  0  0  0  0
   -3.4882    0.6818   -0.1250 C   0  0  0  0  0  0  0  0  0  0  0  0
   -2.8031   -0.5198   -0.4738 O   0  0  0  0  0  0  0  0  0  0  0  0
   -1.4466   -0.5735   -0.3266 C   0  0  0  0  0  0  0  0  0  0  0  0
   -0.6371    0.3919    0.2690 C   0  0  0  0  0  0  0  0  0  0  0  0
    0.7506    0.2030    0.3582 C   0  0  0  0  0  0  0  0  0  0  0  0
    1.3395   -0.9554   -0.1478 C   0  0  0  0  0  0  0  0  0  0  0  0
    2.6698   -1.2674   -0.1296 O   0  0  0  0  0  0  0  0  0  0  0  0
    3.5754   -0.3105    0.3954 C   0  0  0  0  0  0  0  0  0  0  0  0
    3.8360    0.8929   -0.4942 C   0  0  0  0  0  0  0  0  0  0  0  0
    3.8225    2.0615   -0.1372 O   0  0  0  0  0  0  0  0  0  0  0  0
    4.1316    0.5698   -1.7689 O   0  0  0  0  0  0  0  0  0  0  0  0
    0.5262   -1.9239   -0.7369 C   0  0  0  0  0  0  0  0  0  0  0  0
   -0.8551   -1.7351   -0.8241 C   0  0  0  0  0  0  0  0  0  0  0  0
   -4.5087   -0.2297    1.5472 H   0  0  0  0  0  0  0  0  0  0  0  0
   -3.0383    0.6198    1.9999 H   0  0  0  0  0  0  0  0  0  0  0  0
   -4.4933    1.5488    1.5822 H   0  0  0  0  0  0  0  0  0  0  0  0
   -2.9199    1.5817   -0.3845 H   0  0  0  0  0  0  0  0  0  0  0  0
   -4.3934    0.7115   -0.7422 H   0  0  0  0  0  0  0  0  0  0  0  0
   -1.0479    1.3050    0.6863 H   0  0  0  0  0  0  0  0  0  0  0  0
    1.3304    0.9868    0.8349 H   0  0  0  0  0  0  0  0  0  0  0  0
    3.2694    0.0197    1.3951 H   0  0  0  0  0  0  0  0  0  0  0  0
    4.5400   -0.8138    0.5300 H   0  0  0  0  0  0  0  0  0  0  0  0
    4.2511    1.4297   -2.2220 H   0  0  0  0  0  0  0  0  0  0  0  0
    0.9689   -2.8341   -1.1339 H   0  0  0  0  0  0  0  0  0  0  0  0
   -1.4734   -2.5005   -1.2865 H   0  0  0  0  0  0  0  0  0  0  0  0
  1  2  1  0
  2  3  1  0
  3  4  1  0
  4  5  2  0
  5  6  1  0
  6  7  2  0
  7  8  1  0
  8  9  1  0
  9 10  1  0
 10 11  2  0
 10 12  1  0
  7 13  1  0
 13 14  2  0
 14  4  1  0
  1 15  1  0
  1 16  1  0
  1 17  1  0
  2 18  1  0
  2 19  1  0
  5 20  1  0
  6 21  1  0
  9 22  1  0
  9 23  1  0
 12 24  1  0
 13 25  1  0
 14 26  1  0
M  END
