@<TRIPOS>MOLECULE
*****
 47 50 0 0 0
SMALL
GASTEIGER

@<TRIPOS>ATOM
      1 C           4.6877   -2.3834   -3.0205 C.3     1  UNL1       -0.0216
      2 C           4.2984   -1.9308   -1.6577 C.2     1  UNL1        0.0769
      3 N           3.1506   -1.3633   -1.3768 N.2     1  UNL1       -0.0976
      4 N           3.1767   -1.1199    0.0185 N.pl3   1  UNL1       -0.0905
      5 C           1.8920   -1.0712    0.7079 C.3     1  UNL1        0.1260
      6 C           1.1053    0.1051    0.2064 C.2     1  UNL1       -0.0420
      7 C          -0.1174    0.0154   -0.3419 C.2     1  UNL1       -0.0546
      8 C          -0.8510    1.1898   -0.8362 C.ar    1  UNL1       -0.0190
      9 C          -0.2505    1.9558   -1.8494 C.ar    1  UNL1       -0.0190
     10 C          -0.9136    3.0502   -2.3838 C.ar    1  UNL1        0.1240
     11 F          -0.3295    3.7719   -3.3495 F       1  UNL1       -0.2055
     12 C          -2.1767    3.3997   -1.9381 C.ar    1  UNL1       -0.0261
     13 C          -2.7878    2.6437   -0.9356 C.ar    1  UNL1       -0.0550
     14 C          -2.1428    1.5308   -0.3595 C.ar    1  UNL1       -0.0355
     15 C          -2.8091    0.7249    0.7498 C.3     1  UNL1       -0.0001
     16 C          -2.1261    0.9295    2.1190 C.3     1  UNL1       -0.0447
     17 C          -3.1910    0.6554    3.1852 C.3     1  UNL1       -0.0510
     18 C          -4.4570    0.2782    2.4279 C.3     1  UNL1       -0.0372
     19 C          -4.2964    0.9954    1.0890 C.3     1  UNL1        0.0117
     20 N          -5.2458    0.5124    0.0926 N.3     1  UNL1       -0.3267
     21 C           4.2361   -1.7978    0.5684 C.2     1  UNL1        0.3549
     22 N           4.4930   -2.4380    1.6528 N.2     1  UNL1        0.0770
     23 N           5.5608   -3.3579    1.3255 N.2     1  UNL1       -0.0467
     24 C           5.8791   -3.1746    0.0802 C.2     1  UNL1        0.0728
     25 C           5.2395   -1.9915   -0.5042 C.3     1  UNL1        0.1466
     26 H           5.4838   -1.7384   -3.4010 H       1  UNL1        0.0291
     27 H           3.8303   -2.3355   -3.6967 H       1  UNL1        0.0291
     28 H           5.0515   -3.4130   -2.9733 H       1  UNL1        0.0291
     29 H           1.3526   -2.0149    0.5643 H       1  UNL1        0.0796
     30 H           2.0489   -0.9400    1.7852 H       1  UNL1        0.0796
     31 H           1.5886    1.0737    0.3105 H       1  UNL1        0.0610
     32 H          -0.6163   -0.9437   -0.4507 H       1  UNL1        0.0622
     33 H           0.7313    1.6989   -2.2380 H       1  UNL1        0.0652
     34 H          -2.6856    4.2527   -2.3752 H       1  UNL1        0.0646
     35 H          -3.7865    2.9394   -0.6248 H       1  UNL1        0.0621
     36 H          -2.7318   -0.3379    0.4765 H       1  UNL1        0.0364
     37 H          -1.7479    1.9530    2.2333 H       1  UNL1        0.0272
     38 H          -1.2736    0.2547    2.2479 H       1  UNL1        0.0272
     39 H          -3.3587    1.5605    3.7804 H       1  UNL1        0.0266
     40 H          -2.8850   -0.1386    3.8738 H       1  UNL1        0.0266
     41 H          -4.4963   -0.8102    2.2917 H       1  UNL1        0.0280
     42 H          -5.3618    0.5827    2.9636 H       1  UNL1        0.0280
     43 H          -4.4717    2.0663    1.2504 H       1  UNL1        0.0464
     44 H          -6.1926    0.5595    0.4673 H       1  UNL1        0.1185
     45 H          -5.0707   -0.4710   -0.1110 H       1  UNL1        0.1185
     46 H           6.6224   -3.7708   -0.4639 H       1  UNL1        0.0834
     47 H           5.9445   -1.1568   -0.5472 H       1  UNL1        0.0547
@<TRIPOS>BOND
     1     1     2    1
     2     2     3    2
     3     3     4    1
     4     4     5    1
     5     5     6    1
     6     6     7    2
     7     7     8    1
     8     8     9   ar
     9     9    10   ar
    10    10    11    1
    11    10    12   ar
    12    12    13   ar
    13    13    14   ar
    14    14    15    1
    15    15    16    1
    16    16    17    1
    17    17    18    1
    18    18    19    1
    19    19    20    1
    20     4    21    1
    21    21    22    2
    22    22    23    1
    23    23    24    2
    24    24    25    1
    25    25     2    1
    26    14     8   ar
    27    19    15    1
    28    25    21    1
    29     1    26    1
    30     1    27    1
    31     1    28    1
    32     5    29    1
    33     5    30    1
    34     6    31    1
    35     7    32    1
    36     9    33    1
    37    12    34    1
    38    13    35    1
    39    15    36    1
    40    16    37    1
    41    16    38    1
    42    17    39    1
    43    17    40    1
    44    18    41    1
    45    18    42    1
    46    19    43    1
    47    20    44    1
    48    20    45    1
    49    24    46    1
    50    25    47    1
