MODEL 1
REMARK VINA RESULT:      -0.0      0.000      0.000
REMARK  Name = 
REMARK  6 active torsions:
REMARK  status: ('A' for Active; 'I' for Inactive)
REMARK    1  A    between atoms: C_1  and  C_2
REMARK    2  A    between atoms: N_4  and  C_5
REMARK    3  A    between atoms: C_5  and  C_6
REMARK    4  A    between atoms: C_7  and  C_8
REMARK    5  A    between atoms: C_14  and  C_15
REMARK    6  A    between atoms: C_19  and  N_20
REMARK                            x       y       z     vdW  Elec       q    Type
REMARK                         _______ _______ _______ _____ _____    ______ ____
ROOT
ATOM      1  C   UNL     1      -9.583  -7.313  38.823  0.00  0.00    -0.019 A 
ATOM      2  C   UNL     1      -8.184  -7.295  38.947  0.00  0.00    +0.046 A 
ATOM      3  C   UNL     1      -7.592  -6.888  40.133  0.00  0.00    +0.124 A 
ATOM      4  F   UNL     1      -6.257  -6.876  40.238  0.00  0.00    -0.205 F 
ATOM      5  C   UNL     1      -8.366  -6.484  41.208  0.00  0.00    +0.038 A 
ATOM      6  C   UNL     1      -9.757  -6.491  41.097  0.00  0.00    +0.007 A 
ATOM      7  C   UNL     1     -10.397  -6.908  39.912  0.00  0.00    -0.036 A 
ENDROOT
BRANCH   7   8
ATOM      8  C   UNL     1     -11.918  -6.933  39.808  0.00  0.00    +0.036 C 
ATOM      9  C   UNL     1     -12.587  -7.496  41.079  0.00  0.00    +0.010 C 
ATOM     10  C   UNL     1     -13.991  -6.887  41.142  0.00  0.00    +0.002 C 
ATOM     11  C   UNL     1     -14.123  -6.005  39.908  0.00  0.00    +0.019 C 
ATOM     12  C   UNL     1     -12.681  -5.600  39.606  0.00  0.00    +0.058 C 
BRANCH  12  13
ATOM     13  N   UNL     1     -12.545  -5.015  38.277  0.00  0.00    -0.327 NA
ATOM     14  H   UNL     1     -12.152  -4.077  38.351  0.00  0.00    +0.118 HD
ATOM     15  H   UNL     1     -13.463  -4.903  37.847  0.00  0.00    +0.118 HD
ENDBRANCH  12  13
ENDBRANCH   7   8
BRANCH   1  17
ATOM     16  C   UNL     1     -10.059  -6.938  36.431  0.00  0.00    -0.006 C 
ATOM     17  C   UNL     1     -10.149  -7.711  37.525  0.00  0.00    +0.005 C 
BRANCH  16  18
ATOM     18  C   UNL     1     -10.636  -7.302  35.093  0.00  0.00    +0.160 C 
BRANCH  18  22
ATOM     19  C   UNL     1     -10.400  -2.544  34.227  0.00  0.00    +0.063 C 
ATOM     20  C   UNL     1     -10.944  -3.928  34.288  0.00  0.00    +0.050 C 
ATOM     21  N   UNL     1     -10.198  -5.003  34.358  0.00  0.00    -0.187 NA
ATOM     22  N   UNL     1     -11.102  -6.091  34.425  0.00  0.00    -0.205 N 
ATOM     23  C   UNL     1     -12.364  -5.607  34.664  0.00  0.00    +0.154 C 
ATOM     24  N   UNL     1     -13.403  -5.956  35.335  0.00  0.00    -0.136 NA
ATOM     25  N   UNL     1     -14.132  -4.733  35.598  0.00  0.00    -0.159 NA
ATOM     26  C   UNL     1     -13.488  -3.755  35.039  0.00  0.00    +0.124 C 
ATOM     27  C   UNL     1     -12.401  -4.212  34.167  0.00  0.00    +0.144 C 
ENDBRANCH  18  22
ENDBRANCH  16  18
ENDBRANCH   1  17
TORSDOF 5
ENDMDL
MODEL 2
REMARK VINA RESULT:       0.0      3.448      5.373
REMARK  Name = 
REMARK  6 active torsions:
REMARK  status: ('A' for Active; 'I' for Inactive)
REMARK    1  A    between atoms: C_1  and  C_2
REMARK    2  A    between atoms: N_4  and  C_5
REMARK    3  A    between atoms: C_5  and  C_6
REMARK    4  A    between atoms: C_7  and  C_8
REMARK    5  A    between atoms: C_14  and  C_15
REMARK    6  A    between atoms: C_19  and  N_20
REMARK                            x       y       z     vdW  Elec       q    Type
REMARK                         _______ _______ _______ _____ _____    ______ ____
ROOT
ATOM      1  C   UNL     1     -12.218  -6.952  41.032  0.00  0.00    -0.019 A 
ATOM      2  C   UNL     1     -12.581  -7.100  42.380  0.00  0.00    +0.046 A 
ATOM      3  C   UNL     1     -13.895  -7.377  42.724  0.00  0.00    +0.124 A 
ATOM      4  F   UNL     1     -14.228  -7.516  44.014  0.00  0.00    -0.205 F 
ATOM      5  C   UNL     1     -14.871  -7.503  41.749  0.00  0.00    +0.038 A 
ATOM      6  C   UNL     1     -14.525  -7.352  40.405  0.00  0.00    +0.007 A 
ATOM      7  C   UNL     1     -13.198  -7.081  40.014  0.00  0.00    -0.036 A 
ENDROOT
BRANCH   7   8
ATOM      8  C   UNL     1     -12.826  -6.939  38.543  0.00  0.00    +0.036 C 
ATOM      9  C   UNL     1     -13.504  -8.007  37.658  0.00  0.00    +0.010 C 
ATOM     10  C   UNL     1     -13.611  -7.407  36.253  0.00  0.00    +0.002 C 
ATOM     11  C   UNL     1     -12.980  -6.024  36.336  0.00  0.00    +0.019 C 
ATOM     12  C   UNL     1     -13.183  -5.630  37.797  0.00  0.00    +0.058 C 
BRANCH  12  13
ATOM     13  N   UNL     1     -12.372  -4.476  38.169  0.00  0.00    -0.327 NA
ATOM     14  H   UNL     1     -11.541  -4.785  38.671  0.00  0.00    +0.118 HD
ATOM     15  H   UNL     1     -12.887  -3.879  38.815  0.00  0.00    +0.118 HD
ENDBRANCH  12  13
ENDBRANCH   7   8
BRANCH   1  17
ATOM     16  C   UNL     1     -10.292  -5.409  41.010  0.00  0.00    -0.006 C 
ATOM     17  C   UNL     1     -10.818  -6.613  40.734  0.00  0.00    +0.005 C 
BRANCH  16  18
ATOM     18  C   UNL     1      -8.873  -5.020  40.709  0.00  0.00    +0.160 C 
BRANCH  18  22
ATOM     19  C   UNL     1     -10.555  -0.489  40.990  0.00  0.00    +0.063 C 
ATOM     20  C   UNL     1      -9.820  -1.677  40.479  0.00  0.00    +0.050 C 
ATOM     21  N   UNL     1      -9.475  -2.699  41.224  0.00  0.00    -0.187 NA
ATOM     22  N   UNL     1      -8.828  -3.607  40.350  0.00  0.00    -0.205 N 
ATOM     23  C   UNL     1      -9.047  -3.211  39.055  0.00  0.00    +0.154 C 
ATOM     24  N   UNL     1      -9.257  -3.767  37.915  0.00  0.00    -0.136 NA
ATOM     25  N   UNL     1      -9.960  -2.783  37.119  0.00  0.00    -0.159 NA
ATOM     26  C   UNL     1     -10.088  -1.708  37.834  0.00  0.00    +0.124 C 
ATOM     27  C   UNL     1      -9.315  -1.755  39.079  0.00  0.00    +0.144 C 
ENDBRANCH  18  22
ENDBRANCH  16  18
ENDBRANCH   1  17
TORSDOF 5
ENDMDL
MODEL 3
REMARK VINA RESULT:       0.0      3.708      6.203
REMARK  Name = 
REMARK  6 active torsions:
REMARK  status: ('A' for Active; 'I' for Inactive)
REMARK    1  A    between atoms: C_1  and  C_2
REMARK    2  A    between atoms: N_4  and  C_5
REMARK    3  A    between atoms: C_5  and  C_6
REMARK    4  A    between atoms: C_7  and  C_8
REMARK    5  A    between atoms: C_14  and  C_15
REMARK    6  A    between atoms: C_19  and  N_20
REMARK                            x       y       z     vdW  Elec       q    Type
REMARK                         _______ _______ _______ _____ _____    ______ ____
ROOT
ATOM      1  C   UNL     1      -9.711  -6.072  43.677  0.00  0.00    -0.019 A 
ATOM      2  C   UNL     1     -10.864  -6.016  44.478  0.00  0.00    +0.046 A 
ATOM      3  C   UNL     1     -10.991  -6.847  45.580  0.00  0.00    +0.124 A 
ATOM      4  F   UNL     1     -12.095  -6.783  46.335  0.00  0.00    -0.205 F 
ATOM      5  C   UNL     1      -9.993  -7.750  45.904  0.00  0.00    +0.038 A 
ATOM      6  C   UNL     1      -8.844  -7.821  45.114  0.00  0.00    +0.007 A 
ATOM      7  C   UNL     1      -8.672  -6.986  43.991  0.00  0.00    -0.036 A 
ENDROOT
BRANCH   7   8
ATOM      8  C   UNL     1      -7.405  -7.055  43.147  0.00  0.00    +0.036 C 
ATOM      9  C   UNL     1      -6.129  -7.171  44.008  0.00  0.00    +0.010 C 
ATOM     10  C   UNL     1      -5.078  -7.870  43.141  0.00  0.00    +0.002 C 
ATOM     11  C   UNL     1      -5.744  -8.127  41.796  0.00  0.00    +0.019 C 
ATOM     12  C   UNL     1      -7.227  -8.226  42.150  0.00  0.00    +0.058 C 
BRANCH  12  13
ATOM     13  N   UNL     1      -8.077  -8.154  40.966  0.00  0.00    -0.327 NA
ATOM     14  H   UNL     1      -9.045  -7.996  41.244  0.00  0.00    +0.118 HD
ATOM     15  H   UNL     1      -8.066  -9.045  40.471  0.00  0.00    +0.118 HD
ENDBRANCH  12  13
ENDBRANCH   7   8
BRANCH   1  17
ATOM     16  C   UNL     1     -10.410  -5.407  41.406  0.00  0.00    -0.006 C 
ATOM     17  C   UNL     1      -9.656  -5.197  42.496  0.00  0.00    +0.005 C 
BRANCH  16  18
ATOM     18  C   UNL     1     -10.372  -4.546  40.176  0.00  0.00    +0.160 C 
BRANCH  18  22
ATOM     19  C   UNL     1     -12.364  -8.385  37.999  0.00  0.00    +0.063 C 
ATOM     20  C   UNL     1     -11.458  -7.230  38.241  0.00  0.00    +0.050 C 
ATOM     21  N   UNL     1     -11.745  -6.230  39.037  0.00  0.00    -0.187 NA
ATOM     22  N   UNL     1     -10.616  -5.376  39.001  0.00  0.00    -0.205 N 
ATOM     23  C   UNL     1      -9.580  -6.035  38.388  0.00  0.00    +0.154 C 
ATOM     24  N   UNL     1      -8.303  -6.120  38.512  0.00  0.00    -0.136 NA
ATOM     25  N   UNL     1      -7.935  -7.396  37.939  0.00  0.00    -0.159 NA
ATOM     26  C   UNL     1      -9.014  -7.960  37.490  0.00  0.00    +0.124 C 
ATOM     27  C   UNL     1     -10.174  -7.063  37.503  0.00  0.00    +0.144 C 
ENDBRANCH  18  22
ENDBRANCH  16  18
ENDBRANCH   1  17
TORSDOF 5
ENDMDL
MODEL 4
REMARK VINA RESULT:       0.0      3.471      6.261
REMARK  Name = 
REMARK  6 active torsions:
REMARK  status: ('A' for Active; 'I' for Inactive)
REMARK    1  A    between atoms: C_1  and  C_2
REMARK    2  A    between atoms: N_4  and  C_5
REMARK    3  A    between atoms: C_5  and  C_6
REMARK    4  A    between atoms: C_7  and  C_8
REMARK    5  A    between atoms: C_14  and  C_15
REMARK    6  A    between atoms: C_19  and  N_20
REMARK                            x       y       z     vdW  Elec       q    Type
REMARK                         _______ _______ _______ _____ _____    ______ ____
ROOT
ATOM      1  C   UNL     1     -11.838  -2.515  36.201  0.00  0.00    -0.019 A 
ATOM      2  C   UNL     1     -12.010  -2.550  34.807  0.00  0.00    +0.046 A 
ATOM      3  C   UNL     1     -13.270  -2.385  34.254  0.00  0.00    +0.124 A 
ATOM      4  F   UNL     1     -13.420  -2.420  32.923  0.00  0.00    -0.205 F 
ATOM      5  C   UNL     1     -14.378  -2.192  35.061  0.00  0.00    +0.038 A 
ATOM      6  C   UNL     1     -14.223  -2.161  36.448  0.00  0.00    +0.007 A 
ATOM      7  C   UNL     1     -12.957  -2.315  37.049  0.00  0.00    -0.036 A 
ENDROOT
BRANCH   7   8
ATOM      8  C   UNL     1     -12.794  -2.257  38.564  0.00  0.00    +0.036 C 
ATOM      9  C   UNL     1     -13.624  -1.123  39.203  0.00  0.00    +0.010 C 
ATOM     10  C   UNL     1     -13.912  -1.551  40.645  0.00  0.00    +0.002 C 
ATOM     11  C   UNL     1     -13.234  -2.902  40.827  0.00  0.00    +0.019 C 
ATOM     12  C   UNL     1     -13.214  -3.482  39.414  0.00  0.00    +0.058 C 
BRANCH  12  13
ATOM     13  N   UNL     1     -12.324  -4.632  39.307  0.00  0.00    -0.327 NA
ATOM     14  H   UNL     1     -11.446  -4.436  39.787  0.00  0.00    +0.118 HD
ATOM     15  H   UNL     1     -12.082  -4.799  38.332  0.00  0.00    +0.118 HD
ENDBRANCH  12  13
ENDBRANCH   7   8
BRANCH   1  17
ATOM     16  C   UNL     1      -9.887  -3.944  36.691  0.00  0.00    -0.006 C 
ATOM     17  C   UNL     1     -10.484  -2.742  36.728  0.00  0.00    +0.005 C 
BRANCH  16  18
ATOM     18  C   UNL     1      -8.514  -4.220  37.232  0.00  0.00    +0.160 C 
BRANCH  18  22
ATOM     19  C   UNL     1      -9.978  -8.835  37.290  0.00  0.00    +0.063 C 
ATOM     20  C   UNL     1      -9.366  -7.557  37.745  0.00  0.00    +0.050 C 
ATOM     21  N   UNL     1      -8.954  -6.615  36.934  0.00  0.00    -0.187 NA
ATOM     22  N   UNL     1      -8.471  -5.577  37.768  0.00  0.00    -0.205 N 
ATOM     23  C   UNL     1      -8.860  -5.827  39.060  0.00  0.00    +0.154 C 
ATOM     24  N   UNL     1      -9.251  -5.151  40.081  0.00  0.00    -0.136 NA
ATOM     25  N   UNL     1     -10.027  -6.068  40.888  0.00  0.00    -0.159 NA
ATOM     26  C   UNL     1     -10.014  -7.226  40.303  0.00  0.00    +0.124 C 
ATOM     27  C   UNL     1      -9.071  -7.287  39.181  0.00  0.00    +0.144 C 
ENDBRANCH  18  22
ENDBRANCH  16  18
ENDBRANCH   1  17
TORSDOF 5
ENDMDL
MODEL 5
REMARK VINA RESULT:       0.0      3.711      7.555
REMARK  Name = 
REMARK  6 active torsions:
REMARK  status: ('A' for Active; 'I' for Inactive)
REMARK    1  A    between atoms: C_1  and  C_2
REMARK    2  A    between atoms: N_4  and  C_5
REMARK    3  A    between atoms: C_5  and  C_6
REMARK    4  A    between atoms: C_7  and  C_8
REMARK    5  A    between atoms: C_14  and  C_15
REMARK    6  A    between atoms: C_19  and  N_20
REMARK                            x       y       z     vdW  Elec       q    Type
REMARK                         _______ _______ _______ _____ _____    ______ ____
ROOT
ATOM      1  C   UNL     1     -10.419  -5.353  33.908  0.00  0.00    -0.019 A 
ATOM      2  C   UNL     1     -11.640  -4.677  34.071  0.00  0.00    +0.046 A 
ATOM      3  C   UNL     1     -11.713  -3.308  33.867  0.00  0.00    +0.124 A 
ATOM      4  F   UNL     1     -12.883  -2.676  34.025  0.00  0.00    -0.205 F 
ATOM      5  C   UNL     1     -10.589  -2.584  33.509  0.00  0.00    +0.038 A 
ATOM      6  C   UNL     1      -9.368  -3.242  33.350  0.00  0.00    +0.007 A 
ATOM      7  C   UNL     1      -9.253  -4.634  33.538  0.00  0.00    -0.036 A 
ENDROOT
BRANCH   7   8
ATOM      8  C   UNL     1      -7.921  -5.347  33.340  0.00  0.00    +0.036 C 
ATOM      9  C   UNL     1      -7.165  -4.848  32.091  0.00  0.00    +0.010 C 
ATOM     10  C   UNL     1      -5.677  -5.100  32.349  0.00  0.00    +0.002 C 
ATOM     11  C   UNL     1      -5.593  -5.756  33.720  0.00  0.00    +0.019 C 
ATOM     12  C   UNL     1      -6.835  -5.234  34.439  0.00  0.00    +0.058 C 
BRANCH  12  13
ATOM     13  N   UNL     1      -7.119  -5.986  35.656  0.00  0.00    -0.327 NA
ATOM     14  H   UNL     1      -6.679  -6.904  35.606  0.00  0.00    +0.118 HD
ATOM     15  H   UNL     1      -8.120  -6.155  35.739  0.00  0.00    +0.118 HD
ENDBRANCH  12  13
ENDBRANCH   7   8
BRANCH   1  17
ATOM     16  C   UNL     1     -10.514  -7.298  35.424  0.00  0.00    -0.006 C 
ATOM     17  C   UNL     1     -10.396  -6.798  34.184  0.00  0.00    +0.005 C 
BRANCH  16  18
ATOM     18  C   UNL     1     -10.480  -8.764  35.748  0.00  0.00    +0.160 C 
BRANCH  18  22
ATOM     19  C   UNL     1      -9.313  -7.268  40.203  0.00  0.00    +0.063 C 
ATOM     20  C   UNL     1      -9.277  -8.049  38.937  0.00  0.00    +0.050 C 
ATOM     21  N   UNL     1     -10.295  -8.163  38.119  0.00  0.00    -0.187 NA
ATOM     22  N   UNL     1      -9.831  -8.956  37.041  0.00  0.00    -0.205 N 
ATOM     23  C   UNL     1      -8.466  -9.066  37.124  0.00  0.00    +0.154 C 
ATOM     24  N   UNL     1      -7.466  -9.106  36.317  0.00  0.00    -0.136 NA
ATOM     25  N   UNL     1      -6.323  -8.655  37.082  0.00  0.00    -0.159 NA
ATOM     26  C   UNL     1      -6.723  -8.410  38.293  0.00  0.00    +0.124 C 
ATOM     27  C   UNL     1      -8.094  -8.866  38.544  0.00  0.00    +0.144 C 
ENDBRANCH  18  22
ENDBRANCH  16  18
ENDBRANCH   1  17
TORSDOF 5
ENDMDL
MODEL 6
REMARK VINA RESULT:       0.0      4.892      7.123
REMARK  Name = 
REMARK  6 active torsions:
REMARK  status: ('A' for Active; 'I' for Inactive)
REMARK    1  A    between atoms: C_1  and  C_2
REMARK    2  A    between atoms: N_4  and  C_5
REMARK    3  A    between atoms: C_5  and  C_6
REMARK    4  A    between atoms: C_7  and  C_8
REMARK    5  A    between atoms: C_14  and  C_15
REMARK    6  A    between atoms: C_19  and  N_20
REMARK                            x       y       z     vdW  Elec       q    Type
REMARK                         _______ _______ _______ _____ _____    ______ ____
ROOT
ATOM      1  C   UNL     1      -7.267  -2.884  42.351  0.00  0.00    -0.019 A 
ATOM      2  C   UNL     1      -7.334  -3.915  43.302  0.00  0.00    +0.046 A 
ATOM      3  C   UNL     1      -6.520  -5.031  43.182  0.00  0.00    +0.124 A 
ATOM      4  F   UNL     1      -6.594  -6.007  44.096  0.00  0.00    -0.205 F 
ATOM      5  C   UNL     1      -5.637  -5.152  42.122  0.00  0.00    +0.038 A 
ATOM      6  C   UNL     1      -5.564  -4.138  41.166  0.00  0.00    +0.007 A 
ATOM      7  C   UNL     1      -6.367  -2.983  41.258  0.00  0.00    -0.036 A 
ENDROOT
BRANCH   7   8
ATOM      8  C   UNL     1      -6.264  -1.870  40.222  0.00  0.00    +0.036 C 
ATOM      9  C   UNL     1      -4.803  -1.547  39.846  0.00  0.00    +0.010 C 
ATOM     10  C   UNL     1      -4.833  -0.965  38.430  0.00  0.00    +0.002 C 
ATOM     11  C   UNL     1      -6.298  -0.938  38.017  0.00  0.00    +0.019 C 
ATOM     12  C   UNL     1      -6.917  -2.072  38.832  0.00  0.00    +0.058 C 
BRANCH  12  13
ATOM     13  N   UNL     1      -8.374  -2.016  38.828  0.00  0.00    -0.327 NA
ATOM     14  H   UNL     1      -8.722  -1.996  39.786  0.00  0.00    +0.118 HD
ATOM     15  H   UNL     1      -8.757  -2.861  38.406  0.00  0.00    +0.118 HD
ENDBRANCH  12  13
ENDBRANCH   7   8
BRANCH   1  17
ATOM     16  C   UNL     1      -9.509  -1.854  42.291  0.00  0.00    -0.006 C 
ATOM     17  C   UNL     1      -8.188  -1.748  42.508  0.00  0.00    +0.005 C 
BRANCH  16  18
ATOM     18  C   UNL     1     -10.479  -0.717  42.426  0.00  0.00    +0.160 C 
BRANCH  18  22
ATOM     19  C   UNL     1     -13.335  -3.426  39.606  0.00  0.00    +0.063 C 
ATOM     20  C   UNL     1     -12.613  -2.235  40.131  0.00  0.00    +0.050 C 
ATOM     21  N   UNL     1     -12.184  -2.126  41.364  0.00  0.00    -0.187 NA
ATOM     22  N   UNL     1     -11.538  -0.867  41.433  0.00  0.00    -0.205 N 
ATOM     23  C   UNL     1     -11.371  -0.382  40.160  0.00  0.00    +0.154 C 
ATOM     24  N   UNL     1     -10.487   0.285  39.507  0.00  0.00    -0.136 NA
ATOM     25  N   UNL     1     -10.685  -0.056  38.114  0.00  0.00    -0.159 NA
ATOM     26  C   UNL     1     -11.690  -0.875  38.041  0.00  0.00    +0.124 C 
ATOM     27  C   UNL     1     -12.411  -1.007  39.311  0.00  0.00    +0.144 C 
ENDBRANCH  18  22
ENDBRANCH  16  18
ENDBRANCH   1  17
TORSDOF 5
ENDMDL
MODEL 7
REMARK VINA RESULT:       0.0      2.354      4.657
REMARK  Name = 
REMARK  6 active torsions:
REMARK  status: ('A' for Active; 'I' for Inactive)
REMARK    1  A    between atoms: C_1  and  C_2
REMARK    2  A    between atoms: N_4  and  C_5
REMARK    3  A    between atoms: C_5  and  C_6
REMARK    4  A    between atoms: C_7  and  C_8
REMARK    5  A    between atoms: C_14  and  C_15
REMARK    6  A    between atoms: C_19  and  N_20
REMARK                            x       y       z     vdW  Elec       q    Type
REMARK                         _______ _______ _______ _____ _____    ______ ____
ROOT
ATOM      1  C   UNL     1     -10.050  -6.419  37.899  0.00  0.00    -0.019 A 
ATOM      2  C   UNL     1     -10.543  -6.612  39.199  0.00  0.00    +0.046 A 
ATOM      3  C   UNL     1     -10.784  -7.893  39.673  0.00  0.00    +0.124 A 
ATOM      4  F   UNL     1     -11.253  -8.062  40.916  0.00  0.00    -0.205 F 
ATOM      5  C   UNL     1     -10.551  -8.998  38.873  0.00  0.00    +0.038 A 
ATOM      6  C   UNL     1     -10.067  -8.821  37.576  0.00  0.00    +0.007 A 
ATOM      7  C   UNL     1      -9.800  -7.536  37.061  0.00  0.00    -0.036 A 
ENDROOT
BRANCH   7   8
ATOM      8  C   UNL     1      -9.250  -7.354  35.651  0.00  0.00    +0.036 C 
ATOM      9  C   UNL     1      -8.141  -8.373  35.314  0.00  0.00    +0.010 C 
ATOM     10  C   UNL     1      -8.147  -8.540  33.792  0.00  0.00    +0.002 C 
ATOM     11  C   UNL     1      -9.233  -7.609  33.271  0.00  0.00    +0.019 C 
ATOM     12  C   UNL     1     -10.207  -7.509  34.443  0.00  0.00    +0.058 C 
BRANCH  12  13
ATOM     13  N   UNL     1     -11.157  -6.415  34.273  0.00  0.00    -0.327 NA
ATOM     14  H   UNL     1     -11.695  -6.288  35.129  0.00  0.00    +0.118 HD
ATOM     15  H   UNL     1     -11.833  -6.647  33.546  0.00  0.00    +0.118 HD
ENDBRANCH  12  13
ENDBRANCH   7   8
BRANCH   1  17
ATOM     16  C   UNL     1     -10.888  -4.213  37.175  0.00  0.00    -0.006 C 
ATOM     17  C   UNL     1      -9.860  -5.035  37.438  0.00  0.00    +0.005 C 
BRANCH  16  18
ATOM     18  C   UNL     1     -10.735  -2.801  36.690  0.00  0.00    +0.160 C 
BRANCH  18  22
ATOM     19  C   UNL     1     -15.282  -3.350  35.119  0.00  0.00    +0.063 C 
ATOM     20  C   UNL     1     -13.840  -2.984  35.124  0.00  0.00    +0.050 C 
ATOM     21  N   UNL     1     -13.141  -2.779  36.213  0.00  0.00    -0.187 NA
ATOM     22  N   UNL     1     -11.827  -2.485  35.775  0.00  0.00    -0.205 N 
ATOM     23  C   UNL     1     -11.725  -2.789  34.440  0.00  0.00    +0.154 C 
ATOM     24  N   UNL     1     -10.844  -3.279  33.643  0.00  0.00    -0.136 NA
ATOM     25  N   UNL     1     -11.584  -3.844  32.535  0.00  0.00    -0.159 NA
ATOM     26  C   UNL     1     -12.846  -3.622  32.742  0.00  0.00    +0.124 C 
ATOM     27  C   UNL     1     -13.088  -2.712  33.866  0.00  0.00    +0.144 C 
ENDBRANCH  18  22
ENDBRANCH  16  18
ENDBRANCH   1  17
TORSDOF 5
ENDMDL
MODEL 8
REMARK VINA RESULT:       0.0      2.843      6.144
REMARK  Name = 
REMARK  6 active torsions:
REMARK  status: ('A' for Active; 'I' for Inactive)
REMARK    1  A    between atoms: C_1  and  C_2
REMARK    2  A    between atoms: N_4  and  C_5
REMARK    3  A    between atoms: C_5  and  C_6
REMARK    4  A    between atoms: C_7  and  C_8
REMARK    5  A    between atoms: C_14  and  C_15
REMARK    6  A    between atoms: C_19  and  N_20
REMARK                            x       y       z     vdW  Elec       q    Type
REMARK                         _______ _______ _______ _____ _____    ______ ____
ROOT
ATOM      1  C   UNL     1     -10.597  -4.132  35.740  0.00  0.00    -0.019 A 
ATOM      2  C   UNL     1      -9.677  -4.560  34.768  0.00  0.00    +0.046 A 
ATOM      3  C   UNL     1     -10.105  -4.860  33.484  0.00  0.00    +0.124 A 
ATOM      4  F   UNL     1      -9.217  -5.266  32.568  0.00  0.00    -0.205 F 
ATOM      5  C   UNL     1     -11.442  -4.753  33.141  0.00  0.00    +0.038 A 
ATOM      6  C   UNL     1     -12.368  -4.335  34.098  0.00  0.00    +0.007 A 
ATOM      7  C   UNL     1     -11.972  -4.010  35.411  0.00  0.00    -0.036 A 
ENDROOT
BRANCH   7   8
ATOM      8  C   UNL     1     -12.987  -3.534  36.443  0.00  0.00    +0.036 C 
ATOM      9  C   UNL     1     -14.002  -2.532  35.853  0.00  0.00    +0.010 C 
ATOM     10  C   UNL     1     -15.272  -2.643  36.702  0.00  0.00    +0.002 C 
ATOM     11  C   UNL     1     -14.971  -3.680  37.775  0.00  0.00    +0.019 C 
ATOM     12  C   UNL     1     -13.916  -4.571  37.121  0.00  0.00    +0.058 C 
BRANCH  12  13
ATOM     13  N   UNL     1     -13.257  -5.438  38.091  0.00  0.00    -0.327 NA
ATOM     14  H   UNL     1     -13.514  -5.158  39.037  0.00  0.00    +0.118 HD
ATOM     15  H   UNL     1     -12.245  -5.328  38.029  0.00  0.00    +0.118 HD
ENDBRANCH  12  13
ENDBRANCH   7   8
BRANCH   1  17
ATOM     16  C   UNL     1      -9.675  -4.856  37.912  0.00  0.00    -0.006 C 
ATOM     17  C   UNL     1     -10.088  -3.873  37.096  0.00  0.00    +0.005 C 
BRANCH  16  18
ATOM     18  C   UNL     1      -9.164  -4.634  39.306  0.00  0.00    +0.160 C 
BRANCH  18  22
ATOM     19  C   UNL     1     -10.295  -9.297  39.950  0.00  0.00    +0.063 C 
ATOM     20  C   UNL     1     -10.192  -7.836  40.210  0.00  0.00    +0.050 C 
ATOM     21  N   UNL     1      -9.292  -7.058  39.659  0.00  0.00    -0.187 NA
ATOM     22  N   UNL     1      -9.562  -5.757  40.149  0.00  0.00    -0.205 N 
ATOM     23  C   UNL     1     -10.786  -5.760  40.770  0.00  0.00    +0.154 C 
ATOM     24  N   UNL     1     -11.790  -4.966  40.894  0.00  0.00    -0.136 NA
ATOM     25  N   UNL     1     -12.929  -5.812  41.179  0.00  0.00    -0.159 NA
ATOM     26  C   UNL     1     -12.513  -7.040  41.233  0.00  0.00    +0.124 C 
ATOM     27  C   UNL     1     -11.050  -7.147  41.214  0.00  0.00    +0.144 C 
ENDBRANCH  18  22
ENDBRANCH  16  18
ENDBRANCH   1  17
TORSDOF 5
ENDMDL
MODEL 9
REMARK VINA RESULT:       0.0      3.311      6.681
REMARK  Name = 
REMARK  6 active torsions:
REMARK  status: ('A' for Active; 'I' for Inactive)
REMARK    1  A    between atoms: C_1  and  C_2
REMARK    2  A    between atoms: N_4  and  C_5
REMARK    3  A    between atoms: C_5  and  C_6
REMARK    4  A    between atoms: C_7  and  C_8
REMARK    5  A    between atoms: C_14  and  C_15
REMARK    6  A    between atoms: C_19  and  N_20
REMARK                            x       y       z     vdW  Elec       q    Type
REMARK                         _______ _______ _______ _____ _____    ______ ____
ROOT
ATOM      1  C   UNL     1     -12.779  -1.186  37.036  0.00  0.00    -0.019 A 
ATOM      2  C   UNL     1     -13.306  -0.914  38.310  0.00  0.00    +0.046 A 
ATOM      3  C   UNL     1     -12.619  -0.092  39.189  0.00  0.00    +0.124 A 
ATOM      4  F   UNL     1     -13.133   0.159  40.400  0.00  0.00    -0.205 F 
ATOM      5  C   UNL     1     -11.403   0.467  38.834  0.00  0.00    +0.038 A 
ATOM      6  C   UNL     1     -10.865   0.201  37.574  0.00  0.00    +0.007 A 
ATOM      7  C   UNL     1     -11.537  -0.622  36.647  0.00  0.00    -0.036 A 
ENDROOT
BRANCH   7   8
ATOM      8  C   UNL     1     -10.951  -0.889  35.265  0.00  0.00    +0.036 C 
ATOM      9  C   UNL     1     -10.355   0.381  34.622  0.00  0.00    +0.010 C 
ATOM     10  C   UNL     1      -9.277  -0.089  33.640  0.00  0.00    +0.002 C 
ATOM     11  C   UNL     1      -9.280  -1.610  33.711  0.00  0.00    +0.019 C 
ATOM     12  C   UNL     1      -9.786  -1.899  35.122  0.00  0.00    +0.058 C 
BRANCH  12  13
ATOM     13  N   UNL     1     -10.167  -3.297  35.291  0.00  0.00    -0.327 NA
ATOM     14  H   UNL     1     -11.126  -3.355  35.632  0.00  0.00    +0.118 HD
ATOM     15  H   UNL     1      -9.586  -3.736  36.004  0.00  0.00    +0.118 HD
ENDBRANCH  12  13
ENDBRANCH   7   8
BRANCH   1  17
ATOM     16  C   UNL     1     -13.629  -3.418  36.416  0.00  0.00    -0.006 C 
ATOM     17  C   UNL     1     -13.532  -2.102  36.166  0.00  0.00    +0.005 C 
BRANCH  16  18
ATOM     18  C   UNL     1     -14.374  -4.388  35.545  0.00  0.00    +0.160 C 
BRANCH  18  22
ATOM     19  C   UNL     1     -11.566  -7.716  37.661  0.00  0.00    +0.063 C 
ATOM     20  C   UNL     1     -12.282  -6.966  36.594  0.00  0.00    +0.050 C 
ATOM     21  N   UNL     1     -13.333  -6.214  36.809  0.00  0.00    -0.187 NA
ATOM     22  N   UNL     1     -13.678  -5.670  35.548  0.00  0.00    -0.205 N 
ATOM     23  C   UNL     1     -12.654  -5.907  34.666  0.00  0.00    +0.154 C 
ATOM     24  N   UNL     1     -12.081  -5.297  33.690  0.00  0.00    -0.136 NA
ATOM     25  N   UNL     1     -10.749  -5.856  33.603  0.00  0.00    -0.159 NA
ATOM     26  C   UNL     1     -10.640  -6.776  34.512  0.00  0.00    +0.124 C 
ATOM     27  C   UNL     1     -11.919  -7.096  35.155  0.00  0.00    +0.144 C 
ENDBRANCH  18  22
ENDBRANCH  16  18
ENDBRANCH   1  17
TORSDOF 5
ENDMDL
MODEL 10
REMARK VINA RESULT:       0.0      3.640      6.207
REMARK  Name = 
REMARK  6 active torsions:
REMARK  status: ('A' for Active; 'I' for Inactive)
REMARK    1  A    between atoms: C_1  and  C_2
REMARK    2  A    between atoms: N_4  and  C_5
REMARK    3  A    between atoms: C_5  and  C_6
REMARK    4  A    between atoms: C_7  and  C_8
REMARK    5  A    between atoms: C_14  and  C_15
REMARK    6  A    between atoms: C_19  and  N_20
REMARK                            x       y       z     vdW  Elec       q    Type
REMARK                         _______ _______ _______ _____ _____    ______ ____
ROOT
ATOM      1  C   UNL     1      -9.533  -6.762  39.255  0.00  0.00    -0.019 A 
ATOM      2  C   UNL     1      -8.206  -7.206  39.381  0.00  0.00    +0.046 A 
ATOM      3  C   UNL     1      -7.842  -8.461  38.917  0.00  0.00    +0.124 A 
ATOM      4  F   UNL     1      -6.573  -8.871  39.043  0.00  0.00    -0.205 F 
ATOM      5  C   UNL     1      -8.776  -9.299  38.334  0.00  0.00    +0.038 A 
ATOM      6  C   UNL     1     -10.100  -8.873  38.208  0.00  0.00    +0.007 A 
ATOM      7  C   UNL     1     -10.508  -7.601  38.657  0.00  0.00    -0.036 A 
ENDROOT
BRANCH   7   8
ATOM      8  C   UNL     1     -11.951  -7.137  38.495  0.00  0.00    +0.036 C 
ATOM      9  C   UNL     1     -12.540  -7.509  37.118  0.00  0.00    +0.010 C 
ATOM     10  C   UNL     1     -14.057  -7.610  37.303  0.00  0.00    +0.002 C 
ATOM     11  C   UNL     1     -14.326  -7.275  38.763  0.00  0.00    +0.019 C 
ATOM     12  C   UNL     1     -13.030  -7.680  39.464  0.00  0.00    +0.058 C 
BRANCH  12  13
ATOM     13  N   UNL     1     -12.955  -7.149  40.821  0.00  0.00    -0.327 NA
ATOM     14  H   UNL     1     -13.224  -6.166  40.823  0.00  0.00    +0.118 HD
ATOM     15  H   UNL     1     -11.993  -7.180  41.156  0.00  0.00    +0.118 HD
ENDBRANCH  12  13
ENDBRANCH   7   8
BRANCH   1  17
ATOM     16  C   UNL     1      -9.891  -5.194  41.127  0.00  0.00    -0.006 C 
ATOM     17  C   UNL     1      -9.867  -5.440  39.807  0.00  0.00    +0.005 C 
BRANCH  16  18
ATOM     18  C   UNL     1     -10.241  -3.864  41.729  0.00  0.00    +0.160 C 
BRANCH  18  22
ATOM     19  C   UNL     1     -11.262  -6.463  45.685  0.00  0.00    +0.063 C 
ATOM     20  C   UNL     1     -11.404  -5.453  44.601  0.00  0.00    +0.050 C 
ATOM     21  N   UNL     1     -10.398  -4.977  43.910  0.00  0.00    -0.187 NA
ATOM     22  N   UNL     1     -10.968  -4.077  42.976  0.00  0.00    -0.205 N 
ATOM     23  C   UNL     1     -12.330  -4.251  42.966  0.00  0.00    +0.154 C 
ATOM     24  N   UNL     1     -13.282  -4.233  42.103  0.00  0.00    -0.136 NA
ATOM     25  N   UNL     1     -14.340  -5.045  42.665  0.00  0.00    -0.159 NA
ATOM     26  C   UNL     1     -13.949  -5.460  43.832  0.00  0.00    +0.124 C 
ATOM     27  C   UNL     1     -12.712  -4.814  44.281  0.00  0.00    +0.144 C 
ENDBRANCH  18  22
ENDBRANCH  16  18
ENDBRANCH   1  17
TORSDOF 5
ENDMDL
MODEL 11
REMARK VINA RESULT:       0.0      4.183      6.005
REMARK  Name = 
REMARK  6 active torsions:
REMARK  status: ('A' for Active; 'I' for Inactive)
REMARK    1  A    between atoms: C_1  and  C_2
REMARK    2  A    between atoms: N_4  and  C_5
REMARK    3  A    between atoms: C_5  and  C_6
REMARK    4  A    between atoms: C_7  and  C_8
REMARK    5  A    between atoms: C_14  and  C_15
REMARK    6  A    between atoms: C_19  and  N_20
REMARK                            x       y       z     vdW  Elec       q    Type
REMARK                         _______ _______ _______ _____ _____    ______ ____
ROOT
ATOM      1  C   UNL     1      -6.974  -4.041  40.781  0.00  0.00    -0.019 A 
ATOM      2  C   UNL     1      -7.888  -3.123  41.326  0.00  0.00    +0.046 A 
ATOM      3  C   UNL     1      -8.678  -3.482  42.407  0.00  0.00    +0.124 A 
ATOM      4  F   UNL     1      -9.544  -2.597  42.917  0.00  0.00    -0.205 F 
ATOM      5  C   UNL     1      -8.587  -4.747  42.962  0.00  0.00    +0.038 A 
ATOM      6  C   UNL     1      -7.688  -5.671  42.427  0.00  0.00    +0.007 A 
ATOM      7  C   UNL     1      -6.859  -5.342  41.334  0.00  0.00    -0.036 A 
ENDROOT
BRANCH   7   8
ATOM      8  C   UNL     1      -5.864  -6.350  40.771  0.00  0.00    +0.036 C 
ATOM      9  C   UNL     1      -5.120  -7.126  41.879  0.00  0.00    +0.010 C 
ATOM     10  C   UNL     1      -4.700  -8.466  41.269  0.00  0.00    +0.002 C 
ATOM     11  C   UNL     1      -5.183  -8.441  39.825  0.00  0.00    +0.019 C 
ATOM     12  C   UNL     1      -6.383  -7.498  39.869  0.00  0.00    +0.058 C 
BRANCH  12  13
ATOM     13  N   UNL     1      -6.801  -7.083  38.534  0.00  0.00    -0.327 NA
ATOM     14  H   UNL     1      -7.522  -6.366  38.605  0.00  0.00    +0.118 HD
ATOM     15  H   UNL     1      -7.227  -7.865  38.041  0.00  0.00    +0.118 HD
ENDBRANCH  12  13
ENDBRANCH   7   8
BRANCH   1  17
ATOM     16  C   UNL     1      -6.752  -3.458  38.393  0.00  0.00    -0.006 C 
ATOM     17  C   UNL     1      -6.198  -3.617  39.606  0.00  0.00    +0.005 C 
BRANCH  16  18
ATOM     18  C   UNL     1      -5.992  -3.041  37.168  0.00  0.00    +0.160 C 
BRANCH  18  22
ATOM     19  C   UNL     1      -9.734  -4.968  34.773  0.00  0.00    +0.063 C 
ATOM     20  C   UNL     1      -8.329  -4.652  35.150  0.00  0.00    +0.050 C 
ATOM     21  N   UNL     1      -7.978  -3.593  35.837  0.00  0.00    -0.187 NA
ATOM     22  N   UNL     1      -6.574  -3.690  35.997  0.00  0.00    -0.205 N 
ATOM     23  C   UNL     1      -6.170  -4.948  35.626  0.00  0.00    +0.154 C 
ATOM     24  N   UNL     1      -5.301  -5.817  36.006  0.00  0.00    -0.136 NA
ATOM     25  N   UNL     1      -5.805  -7.099  35.563  0.00  0.00    -0.159 NA
ATOM     26  C   UNL     1      -6.918  -6.894  34.927  0.00  0.00    +0.124 C 
ATOM     27  C   UNL     1      -7.179  -5.473  34.678  0.00  0.00    +0.144 C 
ENDBRANCH  18  22
ENDBRANCH  16  18
ENDBRANCH   1  17
TORSDOF 5
ENDMDL
MODEL 12
REMARK VINA RESULT:       0.0      3.381      5.773
REMARK  Name = 
REMARK  6 active torsions:
REMARK  status: ('A' for Active; 'I' for Inactive)
REMARK    1  A    between atoms: C_1  and  C_2
REMARK    2  A    between atoms: N_4  and  C_5
REMARK    3  A    between atoms: C_5  and  C_6
REMARK    4  A    between atoms: C_7  and  C_8
REMARK    5  A    between atoms: C_14  and  C_15
REMARK    6  A    between atoms: C_19  and  N_20
REMARK                            x       y       z     vdW  Elec       q    Type
REMARK                         _______ _______ _______ _____ _____    ______ ____
ROOT
ATOM      1  C   UNL     1     -11.957  -4.564  37.167  0.00  0.00    -0.019 A 
ATOM      2  C   UNL     1     -12.113  -3.850  35.968  0.00  0.00    +0.046 A 
ATOM      3  C   UNL     1     -13.273  -3.986  35.219  0.00  0.00    +0.124 A 
ATOM      4  F   UNL     1     -13.409  -3.298  34.078  0.00  0.00    -0.205 F 
ATOM      5  C   UNL     1     -14.288  -4.831  35.633  0.00  0.00    +0.038 A 
ATOM      6  C   UNL     1     -14.143  -5.552  36.820  0.00  0.00    +0.007 A 
ATOM      7  C   UNL     1     -12.984  -5.433  37.615  0.00  0.00    -0.036 A 
ENDROOT
BRANCH   7   8
ATOM      8  C   UNL     1     -12.845  -6.208  38.920  0.00  0.00    +0.036 C 
ATOM      9  C   UNL     1     -14.147  -6.205  39.750  0.00  0.00    +0.010 C 
ATOM     10  C   UNL     1     -14.117  -7.468  40.615  0.00  0.00    +0.002 C 
ATOM     11  C   UNL     1     -12.802  -8.166  40.296  0.00  0.00    +0.019 C 
ATOM     12  C   UNL     1     -12.500  -7.717  38.868  0.00  0.00    +0.058 C 
BRANCH  12  13
ATOM     13  N   UNL     1     -11.125  -8.015  38.481  0.00  0.00    -0.327 NA
ATOM     14  H   UNL     1     -10.980  -7.767  37.503  0.00  0.00    +0.118 HD
ATOM     15  H   UNL     1     -10.952  -9.017  38.548  0.00  0.00    +0.118 HD
ENDBRANCH  12  13
ENDBRANCH   7   8
BRANCH   1  17
ATOM     16  C   UNL     1      -9.528  -4.911  37.431  0.00  0.00    -0.006 C 
ATOM     17  C   UNL     1     -10.686  -4.412  37.892  0.00  0.00    +0.005 C 
BRANCH  16  18
ATOM     18  C   UNL     1      -8.214  -4.790  38.147  0.00  0.00    +0.160 C 
BRANCH  18  22
ATOM     19  C   UNL     1      -6.986  -8.682  35.542  0.00  0.00    +0.063 C 
ATOM     20  C   UNL     1      -7.141  -7.775  36.712  0.00  0.00    +0.050 C 
ATOM     21  N   UNL     1      -7.314  -6.480  36.614  0.00  0.00    -0.187 NA
ATOM     22  N   UNL     1      -7.441  -6.011  37.945  0.00  0.00    -0.205 N 
ATOM     23  C   UNL     1      -7.607  -7.086  38.781  0.00  0.00    +0.154 C 
ATOM     24  N   UNL     1      -8.276  -7.368  39.843  0.00  0.00    -0.136 NA
ATOM     25  N   UNL     1      -8.423  -8.808  39.846  0.00  0.00    -0.159 NA
ATOM     26  C   UNL     1      -7.806  -9.275  38.803  0.00  0.00    +0.124 C 
ATOM     27  C   UNL     1      -7.003  -8.261  38.114  0.00  0.00    +0.144 C 
ENDBRANCH  18  22
ENDBRANCH  16  18
ENDBRANCH   1  17
TORSDOF 5
ENDMDL
MODEL 13
REMARK VINA RESULT:       0.0      4.027      5.341
REMARK  Name = 
REMARK  6 active torsions:
REMARK  status: ('A' for Active; 'I' for Inactive)
REMARK    1  A    between atoms: C_1  and  C_2
REMARK    2  A    between atoms: N_4  and  C_5
REMARK    3  A    between atoms: C_5  and  C_6
REMARK    4  A    between atoms: C_7  and  C_8
REMARK    5  A    between atoms: C_14  and  C_15
REMARK    6  A    between atoms: C_19  and  N_20
REMARK                            x       y       z     vdW  Elec       q    Type
REMARK                         _______ _______ _______ _____ _____    ______ ____
ROOT
ATOM      1  C   UNL     1     -10.433  -5.671  37.684  0.00  0.00    -0.019 A 
ATOM      2  C   UNL     1     -10.319  -6.737  36.778  0.00  0.00    +0.046 A 
ATOM      3  C   UNL     1     -10.390  -8.047  37.226  0.00  0.00    +0.124 A 
ATOM      4  F   UNL     1     -10.281  -9.055  36.351  0.00  0.00    -0.205 F 
ATOM      5  C   UNL     1     -10.565  -8.327  38.571  0.00  0.00    +0.038 A 
ATOM      6  C   UNL     1     -10.673  -7.276  39.484  0.00  0.00    +0.007 A 
ATOM      7  C   UNL     1     -10.616  -5.931  39.067  0.00  0.00    -0.036 A 
ENDROOT
BRANCH   7   8
ATOM      8  C   UNL     1     -10.758  -4.791  40.069  0.00  0.00    +0.036 C 
ATOM      9  C   UNL     1     -11.872  -5.052  41.105  0.00  0.00    +0.010 C 
ATOM     10  C   UNL     1     -11.500  -4.254  42.358  0.00  0.00    +0.002 C 
ATOM     11  C   UNL     1     -10.201  -3.532  42.027  0.00  0.00    +0.019 C 
ATOM     12  C   UNL     1      -9.554  -4.430  40.975  0.00  0.00    +0.058 C 
BRANCH  12  13
ATOM     13  N   UNL     1      -8.454  -3.763  40.288  0.00  0.00    -0.327 NA
ATOM     14  H   UNL     1      -8.711  -2.800  40.076  0.00  0.00    +0.118 HD
ATOM     15  H   UNL     1      -8.276  -4.212  39.391  0.00  0.00    +0.118 HD
ENDBRANCH  12  13
ENDBRANCH   7   8
BRANCH   1  17
ATOM     16  C   UNL     1      -9.135  -3.809  36.715  0.00  0.00    -0.006 C 
ATOM     17  C   UNL     1     -10.303  -4.305  37.153  0.00  0.00    +0.005 C 
BRANCH  16  18
ATOM     18  C   UNL     1      -8.959  -2.417  36.180  0.00  0.00    +0.160 C 
BRANCH  18  22
ATOM     19  C   UNL     1      -4.284  -3.121  37.226  0.00  0.00    +0.063 C 
ATOM     20  C   UNL     1      -5.612  -2.455  37.140  0.00  0.00    +0.050 C 
ATOM     21  N   UNL     1      -6.533  -2.773  36.264  0.00  0.00    -0.187 NA
ATOM     22  N   UNL     1      -7.634  -1.926  36.544  0.00  0.00    -0.205 N 
ATOM     23  C   UNL     1      -7.427  -1.315  37.755  0.00  0.00    +0.154 C 
ATOM     24  N   UNL     1      -8.132  -0.953  38.768  0.00  0.00    -0.136 NA
ATOM     25  N   UNL     1      -7.217  -0.906  39.889  0.00  0.00    -0.159 NA
ATOM     26  C   UNL     1      -6.033  -1.212  39.452  0.00  0.00    +0.124 C 
ATOM     27  C   UNL     1      -5.966  -1.283  37.989  0.00  0.00    +0.144 C 
ENDBRANCH  18  22
ENDBRANCH  16  18
ENDBRANCH   1  17
TORSDOF 5
ENDMDL
MODEL 14
REMARK VINA RESULT:       0.0      4.426      6.273
REMARK  Name = 
REMARK  6 active torsions:
REMARK  status: ('A' for Active; 'I' for Inactive)
REMARK    1  A    between atoms: C_1  and  C_2
REMARK    2  A    between atoms: N_4  and  C_5
REMARK    3  A    between atoms: C_5  and  C_6
REMARK    4  A    between atoms: C_7  and  C_8
REMARK    5  A    between atoms: C_14  and  C_15
REMARK    6  A    between atoms: C_19  and  N_20
REMARK                            x       y       z     vdW  Elec       q    Type
REMARK                         _______ _______ _______ _____ _____    ______ ____
ROOT
ATOM      1  C   UNL     1      -9.296  -4.676  41.495  0.00  0.00    -0.019 A 
ATOM      2  C   UNL     1      -9.719  -5.945  41.068  0.00  0.00    +0.046 A 
ATOM      3  C   UNL     1      -9.017  -7.080  41.444  0.00  0.00    +0.124 A 
ATOM      4  F   UNL     1      -9.433  -8.284  41.031  0.00  0.00    -0.205 F 
ATOM      5  C   UNL     1      -7.886  -6.982  42.237  0.00  0.00    +0.038 A 
ATOM      6  C   UNL     1      -7.450  -5.726  42.663  0.00  0.00    +0.007 A 
ATOM      7  C   UNL     1      -8.142  -4.550  42.311  0.00  0.00    -0.036 A 
ENDROOT
BRANCH   7   8
ATOM      8  C   UNL     1      -7.671  -3.185  42.800  0.00  0.00    +0.036 C 
ATOM      9  C   UNL     1      -7.248  -3.204  44.284  0.00  0.00    +0.010 C 
ATOM     10  C   UNL     1      -6.233  -2.071  44.465  0.00  0.00    +0.002 C 
ATOM     11  C   UNL     1      -6.100  -1.404  43.103  0.00  0.00    +0.019 C 
ATOM     12  C   UNL     1      -6.444  -2.525  42.124  0.00  0.00    +0.058 C 
BRANCH  12  13
ATOM     13  N   UNL     1      -6.687  -2.019  40.778  0.00  0.00    -0.327 NA
ATOM     14  H   UNL     1      -6.489  -2.747  40.093  0.00  0.00    +0.118 HD
ATOM     15  H   UNL     1      -6.048  -1.253  40.569  0.00  0.00    +0.118 HD
ENDBRANCH  12  13
ENDBRANCH   7   8
BRANCH   1  17
ATOM     16  C   UNL     1     -10.010  -3.082  39.751  0.00  0.00    -0.006 C 
ATOM     17  C   UNL     1     -10.055  -3.507  41.024  0.00  0.00    +0.005 C 
BRANCH  16  18
ATOM     18  C   UNL     1     -10.758  -1.886  39.236  0.00  0.00    +0.160 C 
BRANCH  18  22
ATOM     19  C   UNL     1      -7.527  -2.003  35.631  0.00  0.00    +0.063 C 
ATOM     20  C   UNL     1      -8.390  -1.465  36.718  0.00  0.00    +0.050 C 
ATOM     21  N   UNL     1      -9.472  -2.061  37.154  0.00  0.00    -0.187 NA
ATOM     22  N   UNL     1      -9.968  -1.237  38.194  0.00  0.00    -0.205 N 
ATOM     23  C   UNL     1      -9.011  -0.311  38.523  0.00  0.00    +0.154 C 
ATOM     24  N   UNL     1      -8.575   0.268  39.585  0.00  0.00    -0.136 NA
ATOM     25  N   UNL     1      -7.217   0.670  39.287  0.00  0.00    -0.159 NA
ATOM     26  C   UNL     1      -6.959   0.328  38.061  0.00  0.00    +0.124 C 
ATOM     27  C   UNL     1      -8.147  -0.130  37.334  0.00  0.00    +0.144 C 
ENDBRANCH  18  22
ENDBRANCH  16  18
ENDBRANCH   1  17
TORSDOF 5
ENDMDL
MODEL 15
REMARK VINA RESULT:       0.0      3.341      5.316
REMARK  Name = 
REMARK  6 active torsions:
REMARK  status: ('A' for Active; 'I' for Inactive)
REMARK    1  A    between atoms: C_1  and  C_2
REMARK    2  A    between atoms: N_4  and  C_5
REMARK    3  A    between atoms: C_5  and  C_6
REMARK    4  A    between atoms: C_7  and  C_8
REMARK    5  A    between atoms: C_14  and  C_15
REMARK    6  A    between atoms: C_19  and  N_20
REMARK                            x       y       z     vdW  Elec       q    Type
REMARK                         _______ _______ _______ _____ _____    ______ ____
ROOT
ATOM      1  C   UNL     1     -12.280  -5.008  37.297  0.00  0.00    -0.019 A 
ATOM      2  C   UNL     1     -13.416  -5.588  36.708  0.00  0.00    +0.046 A 
ATOM      3  C   UNL     1     -13.566  -6.966  36.688  0.00  0.00    +0.124 A 
ATOM      4  F   UNL     1     -14.654  -7.506  36.123  0.00  0.00    -0.205 F 
ATOM      5  C   UNL     1     -12.601  -7.792  37.238  0.00  0.00    +0.038 A 
ATOM      6  C   UNL     1     -11.464  -7.230  37.822  0.00  0.00    +0.007 A 
ATOM      7  C   UNL     1     -11.279  -5.833  37.872  0.00  0.00    -0.036 A 
ENDROOT
BRANCH   7   8
ATOM      8  C   UNL     1     -10.045  -5.227  38.531  0.00  0.00    +0.036 C 
ATOM      9  C   UNL     1      -9.679  -5.930  39.856  0.00  0.00    +0.010 C 
ATOM     10  C   UNL     1      -8.175  -5.727  40.058  0.00  0.00    +0.002 C 
ATOM     11  C   UNL     1      -7.699  -4.899  38.873  0.00  0.00    +0.019 C 
ATOM     12  C   UNL     1      -8.696  -5.251  37.771  0.00  0.00    +0.058 C 
BRANCH  12  13
ATOM     13  N   UNL     1      -8.614  -4.328  36.645  0.00  0.00    -0.327 NA
ATOM     14  H   UNL     1      -9.508  -3.854  36.521  0.00  0.00    +0.118 HD
ATOM     15  H   UNL     1      -8.445  -4.842  35.781  0.00  0.00    +0.118 HD
ENDBRANCH  12  13
ENDBRANCH   7   8
BRANCH   1  17
ATOM     16  C   UNL     1     -11.922  -2.879  36.103  0.00  0.00    -0.006 C 
ATOM     17  C   UNL     1     -12.156  -3.543  37.246  0.00  0.00    +0.005 C 
BRANCH  16  18
ATOM     18  C   UNL     1     -11.774  -1.387  36.012  0.00  0.00    +0.160 C 
BRANCH  18  22
ATOM     19  C   UNL     1      -9.411  -2.356  31.898  0.00  0.00    +0.063 C 
ATOM     20  C   UNL     1      -9.725  -1.747  33.219  0.00  0.00    +0.050 C 
ATOM     21  N   UNL     1     -10.932  -1.688  33.727  0.00  0.00    -0.187 NA
ATOM     22  N   UNL     1     -10.784  -1.064  34.990  0.00  0.00    -0.205 N 
ATOM     23  C   UNL     1      -9.449  -1.013  35.307  0.00  0.00    +0.154 C 
ATOM     24  N   UNL     1      -8.718  -1.127  36.359  0.00  0.00    -0.136 NA
ATOM     25  N   UNL     1      -7.411  -1.533  35.889  0.00  0.00    -0.159 NA
ATOM     26  C   UNL     1      -7.454  -1.600  34.593  0.00  0.00    +0.124 C 
ATOM     27  C   UNL     1      -8.693  -1.048  34.035  0.00  0.00    +0.144 C 
ENDBRANCH  18  22
ENDBRANCH  16  18
ENDBRANCH   1  17
TORSDOF 5
ENDMDL
MODEL 16
REMARK VINA RESULT:       0.0      4.551      7.399
REMARK  Name = 
REMARK  6 active torsions:
REMARK  status: ('A' for Active; 'I' for Inactive)
REMARK    1  A    between atoms: C_1  and  C_2
REMARK    2  A    between atoms: N_4  and  C_5
REMARK    3  A    between atoms: C_5  and  C_6
REMARK    4  A    between atoms: C_7  and  C_8
REMARK    5  A    between atoms: C_14  and  C_15
REMARK    6  A    between atoms: C_19  and  N_20
REMARK                            x       y       z     vdW  Elec       q    Type
REMARK                         _______ _______ _______ _____ _____    ______ ____
ROOT
ATOM      1  C   UNL     1      -6.709  -5.656  39.693  0.00  0.00    -0.019 A 
ATOM      2  C   UNL     1      -6.739  -7.057  39.588  0.00  0.00    +0.046 A 
ATOM      3  C   UNL     1      -6.909  -7.662  38.352  0.00  0.00    +0.124 A 
ATOM      4  F   UNL     1      -6.935  -8.998  38.267  0.00  0.00    -0.205 F 
ATOM      5  C   UNL     1      -7.061  -6.901  37.206  0.00  0.00    +0.038 A 
ATOM      6  C   UNL     1      -7.040  -5.508  37.296  0.00  0.00    +0.007 A 
ATOM      7  C   UNL     1      -6.858  -4.854  38.532  0.00  0.00    -0.036 A 
ENDROOT
BRANCH   7   8
ATOM      8  C   UNL     1      -6.814  -3.333  38.617  0.00  0.00    +0.036 C 
ATOM      9  C   UNL     1      -5.978  -2.703  37.483  0.00  0.00    +0.010 C 
ATOM     10  C   UNL     1      -6.521  -1.287  37.273  0.00  0.00    +0.002 C 
ATOM     11  C   UNL     1      -7.638  -1.109  38.292  0.00  0.00    +0.019 C 
ATOM     12  C   UNL     1      -8.138  -2.534  38.523  0.00  0.00    +0.058 C 
BRANCH  12  13
ATOM     13  N   UNL     1      -8.993  -2.629  39.701  0.00  0.00    -0.327 NA
ATOM     14  H   UNL     1      -9.800  -3.217  39.495  0.00  0.00    +0.118 HD
ATOM     15  H   UNL     1      -9.365  -1.711  39.939  0.00  0.00    +0.118 HD
ENDBRANCH  12  13
ENDBRANCH   7   8
BRANCH   1  17
ATOM     16  C   UNL     1      -7.560  -5.114  41.945  0.00  0.00    -0.006 C 
ATOM     17  C   UNL     1      -6.572  -5.074  41.036  0.00  0.00    +0.005 C 
BRANCH  16  18
ATOM     18  C   UNL     1      -7.464  -4.519  43.320  0.00  0.00    +0.160 C 
BRANCH  18  22
ATOM     19  C   UNL     1     -12.303  -4.640  43.197  0.00  0.00    +0.063 C 
ATOM     20  C   UNL     1     -10.923  -4.126  43.411  0.00  0.00    +0.050 C 
ATOM     21  N   UNL     1      -9.875  -4.895  43.576  0.00  0.00    -0.187 NA
ATOM     22  N   UNL     1      -8.774  -4.014  43.718  0.00  0.00    -0.205 N 
ATOM     23  C   UNL     1      -9.169  -2.748  43.364  0.00  0.00    +0.154 C 
ATOM     24  N   UNL     1      -8.665  -1.731  42.761  0.00  0.00    -0.136 NA
ATOM     25  N   UNL     1      -9.790  -0.983  42.241  0.00  0.00    -0.159 NA
ATOM     26  C   UNL     1     -10.877  -1.595  42.599  0.00  0.00    +0.124 C 
ATOM     27  C   UNL     1     -10.634  -2.672  43.564  0.00  0.00    +0.144 C 
ENDBRANCH  18  22
ENDBRANCH  16  18
ENDBRANCH   1  17
TORSDOF 5
ENDMDL
MODEL 17
REMARK VINA RESULT:       0.0      4.843      7.843
REMARK  Name = 
REMARK  6 active torsions:
REMARK  status: ('A' for Active; 'I' for Inactive)
REMARK    1  A    between atoms: C_1  and  C_2
REMARK    2  A    between atoms: N_4  and  C_5
REMARK    3  A    between atoms: C_5  and  C_6
REMARK    4  A    between atoms: C_7  and  C_8
REMARK    5  A    between atoms: C_14  and  C_15
REMARK    6  A    between atoms: C_19  and  N_20
REMARK                            x       y       z     vdW  Elec       q    Type
REMARK                         _______ _______ _______ _____ _____    ______ ____
ROOT
ATOM      1  C   UNL     1      -8.756  -3.769  39.514  0.00  0.00    -0.019 A 
ATOM      2  C   UNL     1      -8.745  -2.402  39.833  0.00  0.00    +0.046 A 
ATOM      3  C   UNL     1      -7.871  -1.540  39.187  0.00  0.00    +0.124 A 
ATOM      4  F   UNL     1      -7.872  -0.238  39.501  0.00  0.00    -0.205 F 
ATOM      5  C   UNL     1      -6.993  -2.011  38.227  0.00  0.00    +0.038 A 
ATOM      6  C   UNL     1      -6.989  -3.369  37.904  0.00  0.00    +0.007 A 
ATOM      7  C   UNL     1      -7.868  -4.276  38.530  0.00  0.00    -0.036 A 
ENDROOT
BRANCH   7   8
ATOM      8  C   UNL     1      -7.872  -5.753  38.155  0.00  0.00    +0.036 C 
ATOM      9  C   UNL     1      -7.756  -5.975  36.632  0.00  0.00    +0.010 C 
ATOM     10  C   UNL     1      -7.125  -7.357  36.437  0.00  0.00    +0.002 C 
ATOM     11  C   UNL     1      -6.907  -7.921  37.834  0.00  0.00    +0.019 C 
ATOM     12  C   UNL     1      -6.750  -6.672  38.700  0.00  0.00    +0.058 C 
BRANCH  12  13
ATOM     13  N   UNL     1      -6.849  -6.977  40.123  0.00  0.00    -0.327 NA
ATOM     14  H   UNL     1      -6.081  -6.534  40.626  0.00  0.00    +0.118 HD
ATOM     15  H   UNL     1      -6.745  -7.980  40.274  0.00  0.00    +0.118 HD
ENDBRANCH  12  13
ENDBRANCH   7   8
BRANCH   1  17
ATOM     16  C   UNL     1      -9.495  -4.922  41.567  0.00  0.00    -0.006 C 
ATOM     17  C   UNL     1      -9.672  -4.640  40.267  0.00  0.00    +0.005 C 
BRANCH  16  18
ATOM     18  C   UNL     1     -10.398  -5.817  42.366  0.00  0.00    +0.160 C 
BRANCH  18  22
ATOM     19  C   UNL     1      -6.553  -6.303  45.267  0.00  0.00    +0.063 C 
ATOM     20  C   UNL     1      -7.739  -6.668  44.447  0.00  0.00    +0.050 C 
ATOM     21  N   UNL     1      -8.695  -5.829  44.131  0.00  0.00    -0.187 NA
ATOM     22  N   UNL     1      -9.601  -6.567  43.331  0.00  0.00    -0.205 N 
ATOM     23  C   UNL     1      -9.015  -7.755  42.975  0.00  0.00    +0.154 C 
ATOM     24  N   UNL     1      -8.985  -8.529  41.949  0.00  0.00    -0.136 NA
ATOM     25  N   UNL     1      -7.749  -9.274  42.052  0.00  0.00    -0.159 NA
ATOM     26  C   UNL     1      -7.152  -8.911  43.146  0.00  0.00    +0.124 C 
ATOM     27  C   UNL     1      -7.993  -8.067  44.001  0.00  0.00    +0.144 C 
ENDBRANCH  18  22
ENDBRANCH  16  18
ENDBRANCH   1  17
TORSDOF 5
ENDMDL
MODEL 18
REMARK VINA RESULT:       0.0      3.561      5.348
REMARK  Name = 
REMARK  6 active torsions:
REMARK  status: ('A' for Active; 'I' for Inactive)
REMARK    1  A    between atoms: C_1  and  C_2
REMARK    2  A    between atoms: N_4  and  C_5
REMARK    3  A    between atoms: C_5  and  C_6
REMARK    4  A    between atoms: C_7  and  C_8
REMARK    5  A    between atoms: C_14  and  C_15
REMARK    6  A    between atoms: C_19  and  N_20
REMARK                            x       y       z     vdW  Elec       q    Type
REMARK                         _______ _______ _______ _____ _____    ______ ____
ROOT
ATOM      1  C   UNL     1      -9.304  -6.505  35.259  0.00  0.00    -0.019 A 
ATOM      2  C   UNL     1      -8.658  -7.312  36.211  0.00  0.00    +0.046 A 
ATOM      3  C   UNL     1      -9.203  -8.534  36.577  0.00  0.00    +0.124 A 
ATOM      4  F   UNL     1      -8.577  -9.293  37.484  0.00  0.00    -0.205 F 
ATOM      5  C   UNL     1     -10.392  -8.973  36.021  0.00  0.00    +0.038 A 
ATOM      6  C   UNL     1     -11.048  -8.179  35.078  0.00  0.00    +0.007 A 
ATOM      7  C   UNL     1     -10.522  -6.936  34.672  0.00  0.00    -0.036 A 
ENDROOT
BRANCH   7   8
ATOM      8  C   UNL     1     -11.233  -6.085  33.626  0.00  0.00    +0.036 C 
ATOM      9  C   UNL     1     -11.757  -6.924  32.441  0.00  0.00    +0.010 C 
ATOM     10  C   UNL     1     -12.945  -6.158  31.853  0.00  0.00    +0.002 C 
ATOM     11  C   UNL     1     -13.079  -4.888  32.683  0.00  0.00    +0.019 C 
ATOM     12  C   UNL     1     -12.495  -5.286  34.037  0.00  0.00    +0.058 C 
BRANCH  12  13
ATOM     13  N   UNL     1     -12.234  -4.126  34.881  0.00  0.00    -0.327 NA
ATOM     14  H   UNL     1     -13.088  -3.850  35.363  0.00  0.00    +0.118 HD
ATOM     15  H   UNL     1     -11.962  -3.328  34.308  0.00  0.00    +0.118 HD
ENDBRANCH  12  13
ENDBRANCH   7   8
BRANCH   1  17
ATOM     16  C   UNL     1      -8.709  -4.176  35.814  0.00  0.00    -0.006 C 
ATOM     17  C   UNL     1      -8.701  -5.201  34.947  0.00  0.00    +0.005 C 
BRANCH  16  18
ATOM     18  C   UNL     1      -8.117  -2.826  35.528  0.00  0.00    +0.160 C 
BRANCH  18  22
ATOM     19  C   UNL     1     -11.011  -1.321  39.107  0.00  0.00    +0.063 C 
ATOM     20  C   UNL     1     -10.324  -1.359  37.787  0.00  0.00    +0.050 C 
ATOM     21  N   UNL     1      -9.200  -1.995  37.566  0.00  0.00    -0.187 NA
ATOM     22  N   UNL     1      -8.915  -1.800  36.193  0.00  0.00    -0.205 N 
ATOM     23  C   UNL     1     -10.024  -1.275  35.578  0.00  0.00    +0.154 C 
ATOM     24  N   UNL     1     -10.621  -1.383  34.445  0.00  0.00    -0.136 NA
ATOM     25  N   UNL     1     -11.998  -1.008  34.688  0.00  0.00    -0.159 NA
ATOM     26  C   UNL     1     -12.109  -0.677  35.938  0.00  0.00    +0.124 C 
ATOM     27  C   UNL     1     -10.813  -0.575  36.617  0.00  0.00    +0.144 C 
ENDBRANCH  18  22
ENDBRANCH  16  18
ENDBRANCH   1  17
TORSDOF 5
ENDMDL
MODEL 19
REMARK VINA RESULT:       0.0      4.483      6.600
REMARK  Name = 
REMARK  6 active torsions:
REMARK  status: ('A' for Active; 'I' for Inactive)
REMARK    1  A    between atoms: C_1  and  C_2
REMARK    2  A    between atoms: N_4  and  C_5
REMARK    3  A    between atoms: C_5  and  C_6
REMARK    4  A    between atoms: C_7  and  C_8
REMARK    5  A    between atoms: C_14  and  C_15
REMARK    6  A    between atoms: C_19  and  N_20
REMARK                            x       y       z     vdW  Elec       q    Type
REMARK                         _______ _______ _______ _____ _____    ______ ____
ROOT
ATOM      1  C   UNL     1      -9.867  -2.507  42.102  0.00  0.00    -0.019 A 
ATOM      2  C   UNL     1     -11.246  -2.550  42.366  0.00  0.00    +0.046 A 
ATOM      3  C   UNL     1     -11.717  -3.137  43.530  0.00  0.00    +0.124 A 
ATOM      4  F   UNL     1     -13.035  -3.171  43.770  0.00  0.00    -0.205 F 
ATOM      5  C   UNL     1     -10.842  -3.697  44.446  0.00  0.00    +0.038 A 
ATOM      6  C   UNL     1      -9.469  -3.666  44.194  0.00  0.00    +0.007 A 
ATOM      7  C   UNL     1      -8.950  -3.070  43.027  0.00  0.00    -0.036 A 
ENDROOT
BRANCH   7   8
ATOM      8  C   UNL     1      -7.448  -3.022  42.771  0.00  0.00    +0.036 C 
ATOM      9  C   UNL     1      -6.645  -2.665  44.040  0.00  0.00    +0.010 C 
ATOM     10  C   UNL     1      -5.249  -3.271  43.859  0.00  0.00    +0.002 C 
ATOM     11  C   UNL     1      -5.256  -3.944  42.494  0.00  0.00    +0.019 C 
ATOM     12  C   UNL     1      -6.725  -4.302  42.282  0.00  0.00    +0.058 C 
BRANCH  12  13
ATOM     13  N   UNL     1      -7.004  -4.669  40.898  0.00  0.00    -0.327 NA
ATOM     14  H   UNL     1      -6.180  -4.501  40.323  0.00  0.00    +0.118 HD
ATOM     15  H   UNL     1      -7.740  -4.074  40.519  0.00  0.00    +0.118 HD
ENDBRANCH  12  13
ENDBRANCH   7   8
BRANCH   1  17
ATOM     16  C   UNL     1      -9.652  -2.505  39.644  0.00  0.00    -0.006 C 
ATOM     17  C   UNL     1      -9.433  -1.913  40.829  0.00  0.00    +0.005 C 
BRANCH  16  18
ATOM     18  C   UNL     1      -9.212  -1.938  38.325  0.00  0.00    +0.160 C 
BRANCH  18  22
ATOM     19  C   UNL     1      -9.598  -6.510  36.777  0.00  0.00    +0.063 C 
ATOM     20  C   UNL     1      -9.035  -5.149  36.988  0.00  0.00    +0.050 C 
ATOM     21  N   UNL     1      -9.756  -4.100  37.302  0.00  0.00    -0.187 NA
ATOM     22  N   UNL     1      -8.837  -3.031  37.433  0.00  0.00    -0.205 N 
ATOM     23  C   UNL     1      -7.562  -3.539  37.454  0.00  0.00    +0.154 C 
ATOM     24  N   UNL     1      -6.451  -3.291  38.050  0.00  0.00    -0.136 NA
ATOM     25  N   UNL     1      -5.712  -4.535  38.042  0.00  0.00    -0.159 NA
ATOM     26  C   UNL     1      -6.425  -5.420  37.415  0.00  0.00    +0.124 C 
ATOM     27  C   UNL     1      -7.596  -4.841  36.750  0.00  0.00    +0.144 C 
ENDBRANCH  18  22
ENDBRANCH  16  18
ENDBRANCH   1  17
TORSDOF 5
ENDMDL
MODEL 20
REMARK VINA RESULT:       0.0      3.159      6.619
REMARK  Name = 
REMARK  6 active torsions:
REMARK  status: ('A' for Active; 'I' for Inactive)
REMARK    1  A    between atoms: C_1  and  C_2
REMARK    2  A    between atoms: N_4  and  C_5
REMARK    3  A    between atoms: C_5  and  C_6
REMARK    4  A    between atoms: C_7  and  C_8
REMARK    5  A    between atoms: C_14  and  C_15
REMARK    6  A    between atoms: C_19  and  N_20
REMARK                            x       y       z     vdW  Elec       q    Type
REMARK                         _______ _______ _______ _____ _____    ______ ____
ROOT
ATOM      1  C   UNL     1     -13.728  -5.049  37.153  0.00  0.00    -0.019 A 
ATOM      2  C   UNL     1     -13.952  -3.663  37.172  0.00  0.00    +0.046 A 
ATOM      3  C   UNL     1     -14.026  -2.950  35.985  0.00  0.00    +0.124 A 
ATOM      4  F   UNL     1     -14.241  -1.629  36.017  0.00  0.00    -0.205 F 
ATOM      5  C   UNL     1     -13.872  -3.588  34.766  0.00  0.00    +0.038 A 
ATOM      6  C   UNL     1     -13.643  -4.964  34.732  0.00  0.00    +0.007 A 
ATOM      7  C   UNL     1     -13.571  -5.726  35.916  0.00  0.00    -0.036 A 
ENDROOT
BRANCH   7   8
ATOM      8  C   UNL     1     -13.342  -7.232  35.868  0.00  0.00    +0.036 C 
ATOM      9  C   UNL     1     -14.171  -7.920  34.762  0.00  0.00    +0.010 C 
ATOM     10  C   UNL     1     -13.415  -9.196  34.378  0.00  0.00    +0.002 C 
ATOM     11  C   UNL     1     -12.184  -9.241  35.272  0.00  0.00    +0.019 C 
ATOM     12  C   UNL     1     -11.918  -7.770  35.584  0.00  0.00    +0.058 C 
BRANCH  12  13
ATOM     13  N   UNL     1     -10.973  -7.606  36.683  0.00  0.00    -0.327 NA
ATOM     14  H   UNL     1     -10.794  -8.509  37.122  0.00  0.00    +0.118 HD
ATOM     15  H   UNL     1     -11.378  -7.015  37.408  0.00  0.00    +0.118 HD
ENDBRANCH  12  13
ENDBRANCH   7   8
BRANCH   1  17
ATOM     16  C   UNL     1     -12.554  -5.589  39.255  0.00  0.00    -0.006 C 
ATOM     17  C   UNL     1     -13.614  -5.741  38.446  0.00  0.00    +0.005 C 
BRANCH  16  18
ATOM     18  C   UNL     1     -12.393  -6.287  40.574  0.00  0.00    +0.160 C 
BRANCH  18  22
ATOM     19  C   UNL     1      -7.693  -5.273  40.005  0.00  0.00    +0.063 C 
ATOM     20  C   UNL     1      -8.930  -6.044  40.302  0.00  0.00    +0.050 C 
ATOM     21  N   UNL     1     -10.072  -5.495  40.633  0.00  0.00    -0.187 NA
ATOM     22  N   UNL     1     -10.979  -6.570  40.800  0.00  0.00    -0.205 N 
ATOM     23  C   UNL     1     -10.410  -7.714  40.300  0.00  0.00    +0.154 C 
ATOM     24  N   UNL     1     -10.790  -8.762  39.660  0.00  0.00    -0.136 NA
ATOM     25  N   UNL     1      -9.615  -9.252  38.972  0.00  0.00    -0.159 NA
ATOM     26  C   UNL     1      -8.620  -8.478  39.278  0.00  0.00    +0.124 C 
ATOM     27  C   UNL     1      -8.941  -7.534  40.353  0.00  0.00    +0.144 C 
ENDBRANCH  18  22
ENDBRANCH  16  18
ENDBRANCH   1  17
TORSDOF 5
ENDMDL
